MODEL 1
REMARK VINA RESULT:    -7.439      0.000      0.000
REMARK INTER + INTRA:          -9.245
REMARK INTER:                  -8.985
REMARK INTRA:                  -0.260
REMARK UNBOUND:                -0.284
REMARK  Name = KVD.pdb
REMARK  4 active torsions:
REMARK  status: ('A' for Active; 'I' for Inactive)
REMARK    1  A    between atoms: O_1  and  C_16
REMARK    2  A    between atoms: C_4  and  C_15
REMARK    3  A    between atoms: C_5  and  C_16
REMARK    4  A    between atoms: C_7  and  C_17
REMARK                            x       y       z     vdW  Elec       q    Type
REMARK                         _______ _______ _______ _____ _____    ______ ____
ROOT
ATOM      1  N   UNL     1      -5.826 -37.727 -17.379  0.00  0.00    +0.000 NA
ATOM      2  C   UNL     1      -6.006 -35.330 -17.046  0.00  0.00    +0.000 A 
ATOM      3  C   UNL     1      -4.389 -36.208 -18.590  0.00  0.00    +0.000 A 
ATOM      4  C   UNL     1      -4.984 -35.108 -17.964  0.00  0.00    +0.000 A 
ATOM      5  C   UNL     1      -6.389 -36.643 -16.793  0.00  0.00    +0.000 A 
ATOM      6  C   UNL     1      -4.833 -37.483 -18.268  0.00  0.00    +0.000 A 
ENDROOT
BRANCH   3   8
ATOM      7  O   UNL     1      -2.118 -36.183 -19.352  0.00  0.00    +0.000 OA
ATOM      8  C   UNL     1      -3.308 -36.072 -19.576  0.00  0.00    +0.000 C 
BRANCH   8   9
ATOM      9  O   UNL     1      -3.779 -35.759 -20.795  0.00  0.00    +0.000 OA
ATOM     10  H   UNL     1      -4.613 -36.266 -20.873  0.00  0.00    +0.000 HD
ENDBRANCH   8   9
ENDBRANCH   3   8
BRANCH   2  11
ATOM     11  C   UNL     1      -6.656 -34.249 -16.378  0.00  0.00    +0.000 C 
ATOM     12  C   UNL     1      -7.263 -33.359 -15.840  0.00  0.00    +0.000 C 
BRANCH  12  13
ATOM     13  C   UNL     1      -8.045 -32.327 -15.234  0.00  0.00    +0.000 A 
ATOM     14  C   UNL     1      -9.348 -32.078 -15.671  0.00  0.00    +0.000 A 
ATOM     15  C   UNL     1      -7.511 -31.580 -14.181  0.00  0.00    +0.000 A 
ATOM     16  C   UNL     1     -10.116 -31.090 -15.050  0.00  0.00    +0.000 A 
ATOM     17  C   UNL     1      -8.281 -30.593 -13.560  0.00  0.00    +0.000 A 
ATOM     18  C   UNL     1      -9.583 -30.352 -13.993  0.00  0.00    +0.000 A 
ENDBRANCH  12  13
ENDBRANCH   2  11
TORSDOF 4
ENDMDL
MODEL 2
REMARK VINA RESULT:    -7.299      2.009      2.426
REMARK INTER + INTRA:          -9.077
REMARK INTER:                  -8.801
REMARK INTRA:                  -0.275
REMARK UNBOUND:                -0.284
REMARK  Name = KVD.pdb
REMARK  4 active torsions:
REMARK  status: ('A' for Active; 'I' for Inactive)
REMARK    1  A    between atoms: O_1  and  C_16
REMARK    2  A    between atoms: C_4  and  C_15
REMARK    3  A    between atoms: C_5  and  C_16
REMARK    4  A    between atoms: C_7  and  C_17
REMARK                            x       y       z     vdW  Elec       q    Type
REMARK                         _______ _______ _______ _____ _____    ______ ____
ROOT
ATOM      1  N   UNL     1      -3.870 -35.778 -18.895  0.00  0.00    +0.000 NA
ATOM      2  C   UNL     1      -5.697 -35.317 -17.365  0.00  0.00    +0.000 A 
ATOM      3  C   UNL     1      -5.271 -37.570 -18.079  0.00  0.00    +0.000 A 
ATOM      4  C   UNL     1      -6.030 -36.667 -17.328  0.00  0.00    +0.000 A 
ATOM      5  C   UNL     1      -4.619 -34.927 -18.153  0.00  0.00    +0.000 A 
ATOM      6  C   UNL     1      -4.216 -37.087 -18.841  0.00  0.00    +0.000 A 
ENDROOT
BRANCH   3   8
ATOM      7  O   UNL     1      -5.485 -39.740 -19.072  0.00  0.00    +0.000 OA
ATOM      8  C   UNL     1      -5.543 -39.014 -18.098  0.00  0.00    +0.000 C 
BRANCH   8   9
ATOM      9  O   UNL     1      -5.920 -39.468 -16.891  0.00  0.00    +0.000 OA
ATOM     10  H   UNL     1      -5.966 -38.666 -16.331  0.00  0.00    +0.000 HD
ENDBRANCH   8   9
ENDBRANCH   3   8
BRANCH   2  11
ATOM     11  C   UNL     1      -6.430 -34.347 -16.619  0.00  0.00    +0.000 C 
ATOM     12  C   UNL     1      -7.089 -33.520 -16.041  0.00  0.00    +0.000 C 
BRANCH  12  13
ATOM     13  C   UNL     1      -7.912 -32.531 -15.418  0.00  0.00    +0.000 A 
ATOM     14  C   UNL     1      -9.191 -32.263 -15.910  0.00  0.00    +0.000 A 
ATOM     15  C   UNL     1      -7.443 -31.846 -14.294  0.00  0.00    +0.000 A 
ATOM     16  C   UNL     1     -10.000 -31.319 -15.274  0.00  0.00    +0.000 A 
ATOM     17  C   UNL     1      -8.253 -30.903 -13.658  0.00  0.00    +0.000 A 
ATOM     18  C   UNL     1      -9.533 -30.643 -14.146  0.00  0.00    +0.000 A 
ENDBRANCH  12  13
ENDBRANCH   2  11
TORSDOF 4
ENDMDL
MODEL 3
REMARK VINA RESULT:    -7.027      4.486      7.769
REMARK INTER + INTRA:          -8.749
REMARK INTER:                  -8.478
REMARK INTRA:                  -0.271
REMARK UNBOUND:                -0.284
REMARK  Name = KVD.pdb
REMARK  4 active torsions:
REMARK  status: ('A' for Active; 'I' for Inactive)
REMARK    1  A    between atoms: O_1  and  C_16
REMARK    2  A    between atoms: C_4  and  C_15
REMARK    3  A    between atoms: C_5  and  C_16
REMARK    4  A    between atoms: C_7  and  C_17
REMARK                            x       y       z     vdW  Elec       q    Type
REMARK                         _______ _______ _______ _____ _____    ______ ____
ROOT
ATOM      1  N   UNL     1      -8.173 -30.541 -13.633  0.00  0.00    +0.000 NA
ATOM      2  C   UNL     1      -8.078 -32.297 -15.307  0.00  0.00    +0.000 A 
ATOM      3  C   UNL     1     -10.139 -31.128 -14.910  0.00  0.00    +0.000 A 
ATOM      4  C   UNL     1      -9.424 -32.109 -15.604  0.00  0.00    +0.000 A 
ATOM      5  C   UNL     1      -7.504 -31.495 -14.326  0.00  0.00    +0.000 A 
ATOM      6  C   UNL     1      -9.483 -30.380 -13.942  0.00  0.00    +0.000 A 
ENDROOT
BRANCH   3   8
ATOM      7  O   UNL     1     -12.025 -29.811 -15.578  0.00  0.00    +0.000 OA
ATOM      8  C   UNL     1     -11.561 -30.854 -15.159  0.00  0.00    +0.000 C 
BRANCH   8   9
ATOM      9  O   UNL     1     -12.338 -31.898 -14.826  0.00  0.00    +0.000 OA
ATOM     10  H   UNL     1     -12.187 -32.553 -15.538  0.00  0.00    +0.000 HD
ENDBRANCH   8   9
ENDBRANCH   3   8
BRANCH   2  11
ATOM     11  C   UNL     1      -7.294 -33.278 -15.983  0.00  0.00    +0.000 C 
ATOM     12  C   UNL     1      -6.658 -34.153 -16.513  0.00  0.00    +0.000 C 
BRANCH  12  13
ATOM     13  C   UNL     1      -5.933 -35.240 -17.093  0.00  0.00    +0.000 A 
ATOM     14  C   UNL     1      -6.304 -36.560 -16.828  0.00  0.00    +0.000 A 
ATOM     15  C   UNL     1      -4.860 -34.979 -17.950  0.00  0.00    +0.000 A 
ATOM     16  C   UNL     1      -5.610 -37.614 -17.426  0.00  0.00    +0.000 A 
ATOM     17  C   UNL     1      -4.167 -36.034 -18.548  0.00  0.00    +0.000 A 
ATOM     18  C   UNL     1      -4.545 -37.350 -18.288  0.00  0.00    +0.000 A 
ENDBRANCH  12  13
ENDBRANCH   2  11
TORSDOF 4
ENDMDL
MODEL 4
REMARK VINA RESULT:    -6.995      6.680      9.575
REMARK INTER + INTRA:          -8.710
REMARK INTER:                  -8.438
REMARK INTRA:                  -0.273
REMARK UNBOUND:                -0.284
REMARK  Name = KVD.pdb
REMARK  4 active torsions:
REMARK  status: ('A' for Active; 'I' for Inactive)
REMARK    1  A    between atoms: O_1  and  C_16
REMARK    2  A    between atoms: C_4  and  C_15
REMARK    3  A    between atoms: C_5  and  C_16
REMARK    4  A    between atoms: C_7  and  C_17
REMARK                            x       y       z     vdW  Elec       q    Type
REMARK                         _______ _______ _______ _____ _____    ______ ____
ROOT
ATOM      1  N   UNL     1     -14.355 -29.632 -18.728  0.00  0.00    +0.000 NA
ATOM      2  C   UNL     1     -12.687 -30.446 -17.165  0.00  0.00    +0.000 A 
ATOM      3  C   UNL     1     -14.304 -28.818 -16.454  0.00  0.00    +0.000 A 
ATOM      4  C   UNL     1     -13.204 -29.630 -16.163  0.00  0.00    +0.000 A 
ATOM      5  C   UNL     1     -13.293 -30.413 -18.416  0.00  0.00    +0.000 A 
ATOM      6  C   UNL     1     -14.838 -28.848 -17.735  0.00  0.00    +0.000 A 
ENDROOT
BRANCH   3   8
ATOM      7  O   UNL     1     -14.996 -26.718 -15.532  0.00  0.00    +0.000 OA
ATOM      8  C   UNL     1     -14.922 -27.930 -15.460  0.00  0.00    +0.000 C 
BRANCH   8   9
ATOM      9  O   UNL     1     -15.379 -28.611 -14.396  0.00  0.00    +0.000 OA
ATOM     10  H   UNL     1     -15.107 -28.072 -13.625  0.00  0.00    +0.000 HD
ENDBRANCH   8   9
ENDBRANCH   3   8
BRANCH   2  11
ATOM     11  C   UNL     1     -11.568 -31.300 -16.929  0.00  0.00    +0.000 C 
ATOM     12  C   UNL     1     -10.588 -31.966 -16.714  0.00  0.00    +0.000 C 
BRANCH  12  13
ATOM     13  C   UNL     1      -9.388 -32.694 -16.445  0.00  0.00    +0.000 A 
ATOM     14  C   UNL     1      -9.243 -34.009 -16.890  0.00  0.00    +0.000 A 
ATOM     15  C   UNL     1      -8.342 -32.076 -15.753  0.00  0.00    +0.000 A 
ATOM     16  C   UNL     1      -8.053 -34.701 -16.650  0.00  0.00    +0.000 A 
ATOM     17  C   UNL     1      -7.153 -32.768 -15.515  0.00  0.00    +0.000 A 
ATOM     18  C   UNL     1      -7.008 -34.079 -15.967  0.00  0.00    +0.000 A 
ENDBRANCH  12  13
ENDBRANCH   2  11
TORSDOF 4
ENDMDL
MODEL 5
REMARK VINA RESULT:    -6.634      6.969      9.945
REMARK INTER + INTRA:          -8.275
REMARK INTER:                  -7.991
REMARK INTRA:                  -0.284
REMARK UNBOUND:                -0.284
REMARK  Name = KVD.pdb
REMARK  4 active torsions:
REMARK  status: ('A' for Active; 'I' for Inactive)
REMARK    1  A    between atoms: O_1  and  C_16
REMARK    2  A    between atoms: C_4  and  C_15
REMARK    3  A    between atoms: C_5  and  C_16
REMARK    4  A    between atoms: C_7  and  C_17
REMARK                            x       y       z     vdW  Elec       q    Type
REMARK                         _______ _______ _______ _____ _____    ______ ____
ROOT
ATOM      1  N   UNL     1     -15.790 -31.200 -16.607  0.00  0.00    +0.000 NA
ATOM      2  C   UNL     1     -13.562 -30.538 -15.910  0.00  0.00    +0.000 A 
ATOM      3  C   UNL     1     -15.308 -28.896 -16.063  0.00  0.00    +0.000 A 
ATOM      4  C   UNL     1     -13.977 -29.216 -15.779  0.00  0.00    +0.000 A 
ATOM      5  C   UNL     1     -14.496 -31.483 -16.320  0.00  0.00    +0.000 A 
ATOM      6  C   UNL     1     -16.168 -29.906 -16.472  0.00  0.00    +0.000 A 
ENDROOT
BRANCH   3   8
ATOM      7  O   UNL     1     -16.953 -27.167 -16.273  0.00  0.00    +0.000 OA
ATOM      8  C   UNL     1     -15.839 -27.530 -15.948  0.00  0.00    +0.000 C 
BRANCH   8   9
ATOM      9  O   UNL     1     -14.921 -26.675 -15.467  0.00  0.00    +0.000 OA
ATOM     10  H   UNL     1     -14.062 -27.055 -15.747  0.00  0.00    +0.000 HD
ENDBRANCH   8   9
ENDBRANCH   3   8
BRANCH   2  11
ATOM     11  C   UNL     1     -12.218 -30.929 -15.631  0.00  0.00    +0.000 C 
ATOM     12  C   UNL     1     -11.066 -31.195 -15.401  0.00  0.00    +0.000 C 
BRANCH  12  13
ATOM     13  C   UNL     1      -9.682 -31.439 -15.138  0.00  0.00    +0.000 A 
ATOM     14  C   UNL     1      -8.926 -32.231 -16.005  0.00  0.00    +0.000 A 
ATOM     15  C   UNL     1      -9.076 -30.860 -14.020  0.00  0.00    +0.000 A 
ATOM     16  C   UNL     1      -7.567 -32.436 -15.757  0.00  0.00    +0.000 A 
ATOM     17  C   UNL     1      -7.717 -31.065 -13.774  0.00  0.00    +0.000 A 
ATOM     18  C   UNL     1      -6.963 -31.849 -14.645  0.00  0.00    +0.000 A 
ENDBRANCH  12  13
ENDBRANCH   2  11
TORSDOF 4
ENDMDL
