REMARK  Name = KVD.pdb
REMARK  4 active torsions:
REMARK  status: ('A' for Active; 'I' for Inactive)
REMARK    1  A    between atoms: O_1  and  C_16
REMARK    2  A    between atoms: C_4  and  C_15
REMARK    3  A    between atoms: C_5  and  C_16
REMARK    4  A    between atoms: C_7  and  C_17
REMARK                            x       y       z     vdW  Elec       q    Type
REMARK                         _______ _______ _______ _____ _____    ______ ____
ROOT
ATOM      1  N   UNL     1      -3.126   1.815   1.429  0.00  0.00    +0.000 NA
ATOM      2  C   UNL     1      -3.199  -0.519   0.767  0.00  0.00    +0.000 A 
ATOM      3  C   UNL     1      -1.083   0.571   1.088  0.00  0.00    +0.000 A 
ATOM      4  C   UNL     1      -1.809  -0.577   0.756  0.00  0.00    +0.000 A 
ATOM      5  C   UNL     1      -3.804   0.686   1.109  0.00  0.00    +0.000 A 
ATOM      6  C   UNL     1      -1.774   1.731   1.410  0.00  0.00    +0.000 A 
ENDROOT
BRANCH   3   8
ATOM      7  O   UNL     1       1.075   1.564   1.398  0.00  0.00    +0.000 OA
ATOM      8  C   UNL     1       0.386   0.604   1.110  0.00  0.00    +0.000 C 
BRANCH   8   9
ATOM      9  O   UNL     1       0.919  -0.567   0.723  0.00  0.00    +0.000 OA
ATOM     10  H   UNL     1       1.885  -0.405   0.713  0.00  0.00    +0.000 HD
ENDBRANCH   8   9
ENDBRANCH   3   8
BRANCH   2  11
ATOM     11  C   UNL     1      -3.996  -1.657   0.442  0.00  0.00    +0.000 C 
ATOM     12  C   UNL     1      -4.723  -2.578   0.171  0.00  0.00    +0.000 C 
BRANCH  12  13
ATOM     13  C   UNL     1      -5.644  -3.625  -0.144  0.00  0.00    +0.000 A 
ATOM     14  C   UNL     1      -5.436  -4.919   0.338  0.00  0.00    +0.000 A 
ATOM     15  C   UNL     1      -6.773  -3.346  -0.919  0.00  0.00    +0.000 A 
ATOM     16  C   UNL     1      -6.359  -5.928   0.052  0.00  0.00    +0.000 A 
ATOM     17  C   UNL     1      -7.696  -4.355  -1.203  0.00  0.00    +0.000 A 
ATOM     18  C   UNL     1      -7.490  -5.644  -0.714  0.00  0.00    +0.000 A 
ENDBRANCH  12  13
ENDBRANCH   2  11
TORSDOF 4
