2779236
  -OEChem-11032505233D

 26 27  0     0  0  0  0  0  0999 V2000
    5.5589    0.8283    0.1238 O   0  0  0  0  0  0  0  0  0  0  0  0
    3.9611    2.4155    0.3431 O   0  0  0  0  0  0  0  0  0  0  0  0
    2.8552   -2.1972   -0.3001 N   0  0  0  0  0  0  0  0  0  0  0  0
    1.0277   -0.6365   -0.0865 C   0  0  0  0  0  0  0  0  0  0  0  0
    3.2896    0.1585    0.0271 C   0  0  0  0  0  0  0  0  0  0  0  0
    1.9232    0.4133    0.0604 C   0  0  0  0  0  0  0  0  0  0  0  0
   -2.9820    0.0189   -0.0025 C   0  0  0  0  0  0  0  0  0  0  0  0
    1.5345   -1.9108   -0.2625 C   0  0  0  0  0  0  0  0  0  0  0  0
    3.7005   -1.1524   -0.1538 C   0  0  0  0  0  0  0  0  0  0  0  0
   -3.7572   -0.5288    1.0196 C   0  0  0  0  0  0  0  0  0  0  0  0
   -3.5830    0.7925   -0.9957 C   0  0  0  0  0  0  0  0  0  0  0  0
   -5.1334   -0.3031    1.0488 C   0  0  0  0  0  0  0  0  0  0  0  0
   -4.9592    1.0182   -0.9664 C   0  0  0  0  0  0  0  0  0  0  0  0
   -5.7343    0.4704    0.0558 C   0  0  0  0  0  0  0  0  0  0  0  0
   -0.3853   -0.4065   -0.0571 C   0  0  0  0  0  0  0  0  0  0  0  0
    4.2561    1.2323    0.1785 C   0  0  0  0  0  0  0  0  0  0  0  0
   -1.5722   -0.2125   -0.0324 C   0  0  0  0  0  0  0  0  0  0  0  0
    1.5546    1.4271    0.2004 H   0  0  0  0  0  0  0  0  0  0  0  0
    0.8835   -2.7718   -0.3830 H   0  0  0  0  0  0  0  0  0  0  0  0
    4.7474   -1.4362   -0.1913 H   0  0  0  0  0  0  0  0  0  0  0  0
   -3.3034   -1.1339    1.8009 H   0  0  0  0  0  0  0  0  0  0  0  0
   -2.9923    1.2263   -1.7990 H   0  0  0  0  0  0  0  0  0  0  0  0
   -5.7371   -0.7296    1.8446 H   0  0  0  0  0  0  0  0  0  0  0  0
   -5.4274    1.6205   -1.7395 H   0  0  0  0  0  0  0  0  0  0  0  0
   -6.8058    0.6462    0.0785 H   0  0  0  0  0  0  0  0  0  0  0  0
    6.1780    1.5818    0.2298 H   0  0  0  0  0  0  0  0  0  0  0  0
  1 16  1  0  0  0  0
  1 26  1  0  0  0  0
  2 16  2  0  0  0  0
  3  8  2  0  0  0  0
  3  9  1  0  0  0  0
  4  6  2  0  0  0  0
  4  8  1  0  0  0  0
  4 15  1  0  0  0  0
  5  6  1  0  0  0  0
  5  9  2  0  0  0  0
  5 16  1  0  0  0  0
  6 18  1  0  0  0  0
  7 10  2  0  0  0  0
  7 11  1  0  0  0  0
  7 17  1  0  0  0  0
  8 19  1  0  0  0  0
  9 20  1  0  0  0  0
 10 12  1  0  0  0  0
 10 21  1  0  0  0  0
 11 13  2  0  0  0  0
 11 22  1  0  0  0  0
 12 14  2  0  0  0  0
 12 23  1  0  0  0  0
 13 14  1  0  0  0  0
 13 24  1  0  0  0  0
 14 25  1  0  0  0  0
 15 17  3  0  0  0  0
M  END
> <PUBCHEM_COMPOUND_CID>
2779236

> <PUBCHEM_CONFORMER_RMSD>
0.6

> <PUBCHEM_CONFORMER_DIVERSEORDER>
1

> <PUBCHEM_MMFF94_PARTIAL_CHARGES>
26
1 -0.65
10 -0.15
11 -0.15
12 -0.15
13 -0.15
14 -0.15
15 -0.07
16 0.63
17 -0.07
18 0.15
19 0.15
2 -0.57
20 0.15
21 0.15
22 0.15
23 0.15
24 0.15
25 0.15
26 0.5
3 -0.62
4 0.07
5 0.09
6 -0.15
7 0.07
8 0.16
9 0.16

> <PUBCHEM_EFFECTIVE_ROTOR_COUNT>
1

> <PUBCHEM_PHARMACOPHORE_FEATURES>
6
1 1 acceptor
1 2 acceptor
1 3 acceptor
3 1 2 16 anion
6 3 4 5 6 8 9 rings
6 7 10 11 12 13 14 rings

> <PUBCHEM_HEAVY_ATOM_COUNT>
17

> <PUBCHEM_ATOM_DEF_STEREO_COUNT>
0

> <PUBCHEM_ATOM_UDEF_STEREO_COUNT>
0

> <PUBCHEM_BOND_DEF_STEREO_COUNT>
0

> <PUBCHEM_BOND_UDEF_STEREO_COUNT>
0

> <PUBCHEM_ISOTOPIC_ATOM_COUNT>
0

> <PUBCHEM_COMPONENT_COUNT>
1

> <PUBCHEM_CACTVS_TAUTO_COUNT>
1

> <PUBCHEM_CONFORMER_ID>
002A686400000001

> <PUBCHEM_MMFF94_ENERGY>
39.9535

> <PUBCHEM_FEATURE_SELFOVERLAP>
30.508

> <PUBCHEM_SHAPE_FINGERPRINT>
10912923 1 17704070673291465211
11089746 13 17203606008404654104
11128504 68 16415478280800836832
11287383 113 18335140899370286483
11471102 20 18342174449609966182
12236239 1 17275106111134046275
12403259 415 18114745941140003975
12507560 40 18261111842387040367
12616971 3 18131341982207801655
12730499 353 18409456881696807674
13081056 2 18335138665892321053
13631057 29 17915167143496221479
13675066 3 18113622283190362823
13760787 5 17917711271246259535
13955234 65 18341048532613477722
14251732 16 18339644546733121907
14528608 73 18202279229784140141
15375358 24 18259423018222883019
15961568 22 17240772817075400532
16079462 125 17968084310162713069
17834072 33 18202559596965347463
17844677 252 18340774732663774629
19433438 28 17967816020408306213
19489759 90 16805321098497822017
200 152 18131347476151162475
20279233 1 18113344085363551747
204376 136 18272370884379188047
20645477 56 18260265261425491223
20645477 70 18271244911136213078
21033648 29 18336250293797431937
21065201 7 16950566532665768227
22854114 59 18335140894901135255
23402539 116 17530961419246285495
23402655 69 18130785659277979110
23532345 1 18412262830906781794
23557571 272 17386007222004011613
23559900 14 17604155804743263767
2916195 48 18187079568420756161
29717793 49 17346601811632756543
300161 21 17704065196712069775
3545911 37 18409452496202427783
42630746 31 18272089383938446718
4325135 7 18342736369035149839
449060 50 18410013247348923423
474 4 18341051908251556608
5104073 3 18041845000404005633
5281201 14 18340489941476244757
542803 24 17275386491242171643
543368 44 17346312752171367977
573450 72 14851605479745454669
633830 44 17774454771850651087
7164475 11 17273991129361209104
8272917 22 18201442441522391774
90127 26 18336552608039235115

> <PUBCHEM_SHAPE_MULTIPOLES>
333.13
13.63
1.7
0.87
5.47
0.02
0.02
-4.47
0.94
-2.5
-0.08
0.97
-0.03
1.23

> <PUBCHEM_SHAPE_SELFOVERLAP>
720.862

> <PUBCHEM_SHAPE_VOLUME>
180.1

> <PUBCHEM_COORDINATE_TYPE>
2
5
10

$$$$
