MODEL 1
REMARK VINA RESULT:    -7.764      0.000      0.000
REMARK INTER + INTRA:         -10.916
REMARK INTER:                 -10.260
REMARK INTRA:                  -0.656
REMARK UNBOUND:                -0.656
REMARK  Name = 
REMARK  10 active torsions:
REMARK  status: ('A' for Active; 'I' for Inactive)
REMARK    1  A    between atoms: C_1  and  O_2
REMARK    2  A    between atoms: O_2  and  C_3
REMARK    3  A    between atoms: C_5  and  C_6
REMARK    4  A    between atoms: C_11  and  O_12
REMARK    5  A    between atoms: C_14  and  O_15
REMARK    6  A    between atoms: C_16  and  C_17
REMARK    7  A    between atoms: C_17  and  C_18
REMARK    8  A    between atoms: C_19  and  C_20
REMARK    9  A    between atoms: C_19  and  C_21
REMARK   10  A    between atoms: C_26  and  O_27
REMARK                            x       y       z     vdW  Elec       q    Type
REMARK                         _______ _______ _______ _____ _____    ______ ____
ROOT
ATOM      1  C   UNL     1      -7.355 -33.623 -16.160  0.00  0.00    +0.000 A 
ATOM      2  C   UNL     1      -6.712 -32.733 -15.395  0.00  0.00    +0.000 A 
ATOM      3  C   UNL     1      -7.500 -31.700 -14.721  0.00  0.00    +0.000 A 
ATOM      4  O   UNL     1      -6.975 -30.894 -13.958  0.00  0.00    +0.000 OA
ATOM      5  C   UNL     1      -8.937 -31.655 -15.008  0.00  0.00    +0.000 A 
ATOM      6  C   UNL     1      -9.751 -30.674 -14.437  0.00  0.00    +0.000 A 
ATOM      7  C   UNL     1     -11.091 -30.600 -14.787  0.00  0.00    +0.000 A 
ATOM      8  C   UNL     1     -11.611 -31.494 -15.721  0.00  0.00    +0.000 A 
ATOM      9  C   UNL     1     -10.815 -32.488 -16.317  0.00  0.00    +0.000 A 
ATOM     10  C   UNL     1      -9.470 -32.583 -15.911  0.00  0.00    +0.000 A 
ATOM     11  O   UNL     1      -8.707 -33.607 -16.436  0.00  0.00    +0.000 OA
ENDROOT
BRANCH   1  14
ATOM     12  C   UNL     1      -4.721 -35.356 -18.200  0.00  0.00    +0.000 A 
ATOM     13  C   UNL     1      -5.566 -34.364 -17.704  0.00  0.00    +0.000 A 
ATOM     14  C   UNL     1      -6.588 -34.695 -16.801  0.00  0.00    +0.000 A 
ATOM     15  C   UNL     1      -6.795 -36.033 -16.437  0.00  0.00    +0.000 A 
ATOM     16  C   UNL     1      -5.964 -37.033 -16.943  0.00  0.00    +0.000 A 
ATOM     17  C   UNL     1      -4.928 -36.680 -17.804  0.00  0.00    +0.000 A 
BRANCH  12  19
ATOM     18  C   UNL     1      -2.400 -34.909 -18.430  0.00  0.00    +0.000 C 
ATOM     19  O   UNL     1      -3.659 -35.160 -19.047  0.00  0.00    +0.000 OA
ENDBRANCH  12  19
BRANCH  17  20
ATOM     20  O   UNL     1      -4.091 -37.673 -18.238  0.00  0.00    +0.000 OA
ATOM     21  H   UNL     1      -4.653 -38.253 -18.790  0.00  0.00    +0.000 HD
ENDBRANCH  17  20
ENDBRANCH   1  14
BRANCH   6  22
ATOM     22  O   UNL     1      -9.295 -29.751 -13.537  0.00  0.00    +0.000 OA
ATOM     23  H   UNL     1      -8.312 -29.774 -13.541  0.00  0.00    +0.000 HD
ENDBRANCH   6  22
BRANCH   8  24
ATOM     24  O   UNL     1     -12.931 -31.320 -16.024  0.00  0.00    +0.000 OA
ATOM     25  H   UNL     1     -13.414 -32.113 -15.745  0.00  0.00    +0.000 HD
ENDBRANCH   8  24
BRANCH   9  26
ATOM     26  C   UNL     1     -11.356 -33.407 -17.394  0.00  0.00    +0.000 C 
BRANCH  26  27
ATOM     27  C   UNL     1     -11.890 -34.693 -16.832  0.00  0.00    +0.000 C 
ATOM     28  C   UNL     1     -12.145 -35.827 -17.514  0.00  0.00    +0.000 C 
ATOM     29  C   UNL     1     -12.714 -37.034 -16.818  0.00  0.00    +0.000 C 
ATOM     30  C   UNL     1     -11.881 -35.992 -18.986  0.00  0.00    +0.000 C 
ENDBRANCH  26  27
ENDBRANCH   9  26
TORSDOF 7
ENDMDL
MODEL 2
REMARK VINA RESULT:    -7.625      2.410      7.341
REMARK INTER + INTRA:         -10.733
REMARK INTER:                  -9.651
REMARK INTRA:                  -1.082
REMARK UNBOUND:                -0.656
REMARK  Name = 
REMARK  10 active torsions:
REMARK  status: ('A' for Active; 'I' for Inactive)
REMARK    1  A    between atoms: C_1  and  O_2
REMARK    2  A    between atoms: O_2  and  C_3
REMARK    3  A    between atoms: C_5  and  C_6
REMARK    4  A    between atoms: C_11  and  O_12
REMARK    5  A    between atoms: C_14  and  O_15
REMARK    6  A    between atoms: C_16  and  C_17
REMARK    7  A    between atoms: C_17  and  C_18
REMARK    8  A    between atoms: C_19  and  C_20
REMARK    9  A    between atoms: C_19  and  C_21
REMARK   10  A    between atoms: C_26  and  O_27
REMARK                            x       y       z     vdW  Elec       q    Type
REMARK                         _______ _______ _______ _____ _____    ______ ____
ROOT
ATOM      1  C   UNL     1     -11.746 -31.044 -15.622  0.00  0.00    +0.000 A 
ATOM      2  C   UNL     1     -11.256 -30.390 -14.562  0.00  0.00    +0.000 A 
ATOM      3  C   UNL     1      -9.857 -30.612 -14.194  0.00  0.00    +0.000 A 
ATOM      4  O   UNL     1      -9.334 -29.995 -13.271  0.00  0.00    +0.000 OA
ATOM      5  C   UNL     1      -9.112 -31.616 -14.961  0.00  0.00    +0.000 A 
ATOM      6  C   UNL     1      -7.785 -31.917 -14.647  0.00  0.00    +0.000 A 
ATOM      7  C   UNL     1      -7.125 -32.927 -15.331  0.00  0.00    +0.000 A 
ATOM      8  C   UNL     1      -7.799 -33.648 -16.315  0.00  0.00    +0.000 A 
ATOM      9  C   UNL     1      -9.137 -33.372 -16.650  0.00  0.00    +0.000 A 
ATOM     10  C   UNL     1      -9.774 -32.308 -15.983  0.00  0.00    +0.000 A 
ATOM     11  O   UNL     1     -11.061 -31.984 -16.364  0.00  0.00    +0.000 OA
ENDROOT
BRANCH   1  14
ATOM     12  C   UNL     1     -14.815 -29.224 -16.794  0.00  0.00    +0.000 A 
ATOM     13  C   UNL     1     -13.556 -29.474 -16.250  0.00  0.00    +0.000 A 
ATOM     14  C   UNL     1     -13.130 -30.793 -16.034  0.00  0.00    +0.000 A 
ATOM     15  C   UNL     1     -13.991 -31.862 -16.316  0.00  0.00    +0.000 A 
ATOM     16  C   UNL     1     -15.260 -31.619 -16.845  0.00  0.00    +0.000 A 
ATOM     17  C   UNL     1     -15.648 -30.305 -17.093  0.00  0.00    +0.000 A 
BRANCH  12  19
ATOM     18  C   UNL     1     -14.910 -26.910 -16.269  0.00  0.00    +0.000 C 
ATOM     19  O   UNL     1     -15.331 -27.990 -17.097  0.00  0.00    +0.000 OA
ENDBRANCH  12  19
BRANCH  17  20
ATOM     20  O   UNL     1     -16.874 -30.099 -17.668  0.00  0.00    +0.000 OA
ATOM     21  H   UNL     1     -16.691 -30.004 -18.623  0.00  0.00    +0.000 HD
ENDBRANCH  17  20
ENDBRANCH   1  14
BRANCH   6  22
ATOM     22  O   UNL     1      -7.078 -31.267 -13.673  0.00  0.00    +0.000 OA
ATOM     23  H   UNL     1      -7.414 -30.345 -13.611  0.00  0.00    +0.000 HD
ENDBRANCH   6  22
BRANCH   8  24
ATOM     24  O   UNL     1      -7.077 -34.642 -16.909  0.00  0.00    +0.000 OA
ATOM     25  H   UNL     1      -6.625 -34.271 -17.682  0.00  0.00    +0.000 HD
ENDBRANCH   8  24
BRANCH   9  26
ATOM     26  C   UNL     1      -9.897 -34.206 -17.660  0.00  0.00    +0.000 C 
BRANCH  26  27
ATOM     27  C   UNL     1     -10.655 -35.332 -17.016  0.00  0.00    +0.000 C 
ATOM     28  C   UNL     1     -11.937 -35.678 -17.248  0.00  0.00    +0.000 C 
ATOM     29  C   UNL     1     -12.576 -36.815 -16.498  0.00  0.00    +0.000 C 
ATOM     30  C   UNL     1     -12.818 -34.989 -18.254  0.00  0.00    +0.000 C 
ENDBRANCH  26  27
ENDBRANCH   9  26
TORSDOF 7
ENDMDL
MODEL 3
REMARK VINA RESULT:    -7.337      3.489      9.146
REMARK INTER + INTRA:         -10.351
REMARK INTER:                  -9.808
REMARK INTRA:                  -0.544
REMARK UNBOUND:                -0.656
REMARK  Name = 
REMARK  10 active torsions:
REMARK  status: ('A' for Active; 'I' for Inactive)
REMARK    1  A    between atoms: C_1  and  O_2
REMARK    2  A    between atoms: O_2  and  C_3
REMARK    3  A    between atoms: C_5  and  C_6
REMARK    4  A    between atoms: C_11  and  O_12
REMARK    5  A    between atoms: C_14  and  O_15
REMARK    6  A    between atoms: C_16  and  C_17
REMARK    7  A    between atoms: C_17  and  C_18
REMARK    8  A    between atoms: C_19  and  C_20
REMARK    9  A    between atoms: C_19  and  C_21
REMARK   10  A    between atoms: C_26  and  O_27
REMARK                            x       y       z     vdW  Elec       q    Type
REMARK                         _______ _______ _______ _____ _____    ______ ____
ROOT
ATOM      1  C   UNL     1     -13.378 -31.066 -18.035  0.00  0.00    +0.000 A 
ATOM      2  C   UNL     1     -13.861 -31.481 -19.212  0.00  0.00    +0.000 A 
ATOM      3  C   UNL     1     -13.362 -32.743 -19.761  0.00  0.00    +0.000 A 
ATOM      4  O   UNL     1     -13.812 -33.207 -20.805  0.00  0.00    +0.000 OA
ATOM      5  C   UNL     1     -12.290 -33.420 -19.024  0.00  0.00    +0.000 A 
ATOM      6  C   UNL     1     -11.730 -34.607 -19.503  0.00  0.00    +0.000 A 
ATOM      7  C   UNL     1     -10.662 -35.185 -18.833  0.00  0.00    +0.000 A 
ATOM      8  C   UNL     1     -10.143 -34.567 -17.698  0.00  0.00    +0.000 A 
ATOM      9  C   UNL     1     -10.681 -33.369 -17.196  0.00  0.00    +0.000 A 
ATOM     10  C   UNL     1     -11.798 -32.823 -17.856  0.00  0.00    +0.000 A 
ATOM     11  O   UNL     1     -12.377 -31.690 -17.320  0.00  0.00    +0.000 OA
ENDROOT
BRANCH   1  14
ATOM     12  C   UNL     1     -15.136 -28.745 -15.664  0.00  0.00    +0.000 A 
ATOM     13  C   UNL     1     -14.755 -29.906 -16.334  0.00  0.00    +0.000 A 
ATOM     14  C   UNL     1     -13.904 -29.831 -17.448  0.00  0.00    +0.000 A 
ATOM     15  C   UNL     1     -13.479 -28.581 -17.921  0.00  0.00    +0.000 A 
ATOM     16  C   UNL     1     -13.871 -27.414 -17.265  0.00  0.00    +0.000 A 
ATOM     17  C   UNL     1     -14.679 -27.511 -16.136  0.00  0.00    +0.000 A 
BRANCH  12  19
ATOM     18  C   UNL     1     -17.197 -29.310 -14.628  0.00  0.00    +0.000 C 
ATOM     19  O   UNL     1     -15.920 -28.684 -14.540  0.00  0.00    +0.000 OA
ENDBRANCH  12  19
BRANCH  17  20
ATOM     20  O   UNL     1     -15.000 -26.354 -15.477  0.00  0.00    +0.000 OA
ATOM     21  H   UNL     1     -15.789 -26.577 -14.946  0.00  0.00    +0.000 HD
ENDBRANCH  17  20
ENDBRANCH   1  14
BRANCH   6  22
ATOM     22  O   UNL     1     -12.176 -35.247 -20.627  0.00  0.00    +0.000 OA
ATOM     23  H   UNL     1     -12.697 -34.606 -21.161  0.00  0.00    +0.000 HD
ENDBRANCH   6  22
BRANCH   8  24
ATOM     24  O   UNL     1      -9.072 -35.195 -17.129  0.00  0.00    +0.000 OA
ATOM     25  H   UNL     1      -8.731 -35.846 -17.761  0.00  0.00    +0.000 HD
ENDBRANCH   8  24
BRANCH   9  26
ATOM     26  C   UNL     1     -10.066 -32.651 -16.012  0.00  0.00    +0.000 C 
BRANCH  26  27
ATOM     27  C   UNL     1      -8.627 -32.292 -16.245  0.00  0.00    +0.000 C 
ATOM     28  C   UNL     1      -7.769 -31.772 -15.344  0.00  0.00    +0.000 C 
ATOM     29  C   UNL     1      -6.356 -31.430 -15.734  0.00  0.00    +0.000 C 
ATOM     30  C   UNL     1      -8.128 -31.504 -13.909  0.00  0.00    +0.000 C 
ENDBRANCH  26  27
ENDBRANCH   9  26
TORSDOF 7
ENDMDL
MODEL 4
REMARK VINA RESULT:    -7.027      2.537      5.532
REMARK INTER + INTRA:          -9.943
REMARK INTER:                  -8.898
REMARK INTRA:                  -1.044
REMARK UNBOUND:                -0.656
REMARK  Name = 
REMARK  10 active torsions:
REMARK  status: ('A' for Active; 'I' for Inactive)
REMARK    1  A    between atoms: C_1  and  O_2
REMARK    2  A    between atoms: O_2  and  C_3
REMARK    3  A    between atoms: C_5  and  C_6
REMARK    4  A    between atoms: C_11  and  O_12
REMARK    5  A    between atoms: C_14  and  O_15
REMARK    6  A    between atoms: C_16  and  C_17
REMARK    7  A    between atoms: C_17  and  C_18
REMARK    8  A    between atoms: C_19  and  C_20
REMARK    9  A    between atoms: C_19  and  C_21
REMARK   10  A    between atoms: C_26  and  O_27
REMARK                            x       y       z     vdW  Elec       q    Type
REMARK                         _______ _______ _______ _____ _____    ______ ____
ROOT
ATOM      1  C   UNL     1     -11.778 -31.129 -15.760  0.00  0.00    +0.000 A 
ATOM      2  C   UNL     1     -12.521 -30.072 -15.414  0.00  0.00    +0.000 A 
ATOM      3  C   UNL     1     -13.888 -29.986 -15.930  0.00  0.00    +0.000 A 
ATOM      4  O   UNL     1     -14.640 -29.074 -15.598  0.00  0.00    +0.000 OA
ATOM      5  C   UNL     1     -14.318 -31.023 -16.873  0.00  0.00    +0.000 A 
ATOM      6  C   UNL     1     -15.593 -30.990 -17.443  0.00  0.00    +0.000 A 
ATOM      7  C   UNL     1     -15.948 -31.935 -18.395  0.00  0.00    +0.000 A 
ATOM      8  C   UNL     1     -15.023 -32.898 -18.790  0.00  0.00    +0.000 A 
ATOM      9  C   UNL     1     -13.730 -32.954 -18.239  0.00  0.00    +0.000 A 
ATOM     10  C   UNL     1     -13.404 -32.021 -17.236  0.00  0.00    +0.000 A 
ATOM     11  O   UNL     1     -12.163 -32.122 -16.638  0.00  0.00    +0.000 OA
ENDROOT
BRANCH   1  14
ATOM     12  C   UNL     1      -8.137 -32.009 -15.490  0.00  0.00    +0.000 A 
ATOM     13  C   UNL     1      -9.466 -32.008 -15.909  0.00  0.00    +0.000 A 
ATOM     14  C   UNL     1     -10.424 -31.256 -15.212  0.00  0.00    +0.000 A 
ATOM     15  C   UNL     1     -10.056 -30.546 -14.060  0.00  0.00    +0.000 A 
ATOM     16  C   UNL     1      -8.730 -30.557 -13.626  0.00  0.00    +0.000 A 
ATOM     17  C   UNL     1      -7.785 -31.274 -14.355  0.00  0.00    +0.000 A 
BRANCH  12  19
ATOM     18  C   UNL     1      -7.072 -34.077 -15.969  0.00  0.00    +0.000 C 
ATOM     19  O   UNL     1      -7.098 -32.659 -16.108  0.00  0.00    +0.000 OA
ENDBRANCH  12  19
BRANCH  17  20
ATOM     20  O   UNL     1      -6.480 -31.218 -13.941  0.00  0.00    +0.000 OA
ATOM     21  H   UNL     1      -6.154 -30.351 -14.252  0.00  0.00    +0.000 HD
ENDBRANCH  17  20
ENDBRANCH   1  14
BRANCH   6  22
ATOM     22  O   UNL     1     -16.535 -30.054 -17.119  0.00  0.00    +0.000 OA
ATOM     23  H   UNL     1     -17.325 -30.520 -16.763  0.00  0.00    +0.000 HD
ENDBRANCH   6  22
BRANCH   8  24
ATOM     24  O   UNL     1     -15.455 -33.762 -19.755  0.00  0.00    +0.000 OA
ATOM     25  H   UNL     1     -14.755 -34.412 -19.917  0.00  0.00    +0.000 HD
ENDBRANCH   8  24
BRANCH   9  26
ATOM     26  C   UNL     1     -12.695 -33.947 -18.726  0.00  0.00    +0.000 C 
BRANCH  26  27
ATOM     27  C   UNL     1     -13.002 -35.352 -18.292  0.00  0.00    +0.000 C 
ATOM     28  C   UNL     1     -12.463 -36.009 -17.246  0.00  0.00    +0.000 C 
ATOM     29  C   UNL     1     -12.845 -37.434 -16.951  0.00  0.00    +0.000 C 
ATOM     30  C   UNL     1     -11.468 -35.396 -16.299  0.00  0.00    +0.000 C 
ENDBRANCH  26  27
ENDBRANCH   9  26
TORSDOF 7
ENDMDL
MODEL 5
REMARK VINA RESULT:    -6.846      3.087      6.668
REMARK INTER + INTRA:          -9.702
REMARK INTER:                  -8.578
REMARK INTRA:                  -1.125
REMARK UNBOUND:                -0.656
REMARK  Name = 
REMARK  10 active torsions:
REMARK  status: ('A' for Active; 'I' for Inactive)
REMARK    1  A    between atoms: C_1  and  O_2
REMARK    2  A    between atoms: O_2  and  C_3
REMARK    3  A    between atoms: C_5  and  C_6
REMARK    4  A    between atoms: C_11  and  O_12
REMARK    5  A    between atoms: C_14  and  O_15
REMARK    6  A    between atoms: C_16  and  C_17
REMARK    7  A    between atoms: C_17  and  C_18
REMARK    8  A    between atoms: C_19  and  C_20
REMARK    9  A    between atoms: C_19  and  C_21
REMARK   10  A    between atoms: C_26  and  O_27
REMARK                            x       y       z     vdW  Elec       q    Type
REMARK                         _______ _______ _______ _____ _____    ______ ____
ROOT
ATOM      1  C   UNL     1     -10.513 -34.339 -17.371  0.00  0.00    +0.000 A 
ATOM      2  C   UNL     1     -11.090 -35.339 -16.695  0.00  0.00    +0.000 A 
ATOM      3  C   UNL     1     -11.989 -36.238 -17.419  0.00  0.00    +0.000 A 
ATOM      4  O   UNL     1     -12.499 -37.210 -16.869  0.00  0.00    +0.000 OA
ATOM      5  C   UNL     1     -12.271 -35.922 -18.823  0.00  0.00    +0.000 A 
ATOM      6  C   UNL     1     -13.150 -36.707 -19.572  0.00  0.00    +0.000 A 
ATOM      7  C   UNL     1     -13.465 -36.341 -20.873  0.00  0.00    +0.000 A 
ATOM      8  C   UNL     1     -12.915 -35.182 -21.415  0.00  0.00    +0.000 A 
ATOM      9  C   UNL     1     -12.032 -34.368 -20.684  0.00  0.00    +0.000 A 
ATOM     10  C   UNL     1     -11.681 -34.782 -19.385  0.00  0.00    +0.000 A 
ATOM     11  O   UNL     1     -10.754 -34.027 -18.694  0.00  0.00    +0.000 OA
ENDROOT
BRANCH   1  14
ATOM     12  C   UNL     1      -9.201 -31.555 -15.219  0.00  0.00    +0.000 A 
ATOM     13  C   UNL     1     -10.052 -32.314 -16.020  0.00  0.00    +0.000 A 
ATOM     14  C   UNL     1      -9.571 -33.460 -16.673  0.00  0.00    +0.000 A 
ATOM     15  C   UNL     1      -8.219 -33.813 -16.561  0.00  0.00    +0.000 A 
ATOM     16  C   UNL     1      -7.357 -33.047 -15.774  0.00  0.00    +0.000 A 
ATOM     17  C   UNL     1      -7.863 -31.939 -15.101  0.00  0.00    +0.000 A 
BRANCH  12  19
ATOM     18  C   UNL     1     -10.951 -30.233 -14.308  0.00  0.00    +0.000 C 
ATOM     19  O   UNL     1      -9.555 -30.446 -14.493  0.00  0.00    +0.000 OA
ENDBRANCH  12  19
BRANCH  17  20
ATOM     20  O   UNL     1      -7.009 -31.241 -14.287  0.00  0.00    +0.000 OA
ATOM     21  H   UNL     1      -7.479 -30.408 -14.087  0.00  0.00    +0.000 HD
ENDBRANCH  17  20
ENDBRANCH   1  14
BRANCH   6  22
ATOM     22  O   UNL     1     -13.744 -37.840 -19.087  0.00  0.00    +0.000 OA
ATOM     23  H   UNL     1     -14.057 -38.375 -19.850  0.00  0.00    +0.000 HD
ENDBRANCH   6  22
BRANCH   8  24
ATOM     24  O   UNL     1     -13.311 -34.889 -22.689  0.00  0.00    +0.000 OA
ATOM     25  H   UNL     1     -13.019 -35.608 -23.271  0.00  0.00    +0.000 HD
ENDBRANCH   8  24
BRANCH   9  26
ATOM     26  C   UNL     1     -11.499 -33.064 -21.241  0.00  0.00    +0.000 C 
BRANCH  26  27
ATOM     27  C   UNL     1     -12.463 -31.927 -21.058  0.00  0.00    +0.000 C 
ATOM     28  C   UNL     1     -12.354 -30.910 -20.182  0.00  0.00    +0.000 C 
ATOM     29  C   UNL     1     -13.422 -29.855 -20.088  0.00  0.00    +0.000 C 
ATOM     30  C   UNL     1     -11.185 -30.732 -19.251  0.00  0.00    +0.000 C 
ENDBRANCH  26  27
ENDBRANCH   9  26
TORSDOF 7
ENDMDL
