MODEL 1
REMARK VINA RESULT:    -7.510      0.000      0.000
REMARK INTER + INTRA:          -9.060
REMARK INTER:                  -8.827
REMARK INTRA:                  -0.233
REMARK UNBOUND:                -0.233
REMARK  Name = 
REMARK  4 active torsions:
REMARK  status: ('A' for Active; 'I' for Inactive)
REMARK    1  A    between atoms: C_2  and  O_3
REMARK    2  A    between atoms: C_2  and  C_4
REMARK    3  A    between atoms: C_7  and  C_8
REMARK    4  A    between atoms: C_13  and  O_14
REMARK                            x       y       z     vdW  Elec       q    Type
REMARK                         _______ _______ _______ _____ _____    ______ ____
ROOT
ATOM      1  C   UNL     1     -10.235 -31.946 -16.068  0.00  0.00    +0.000 A 
ATOM      2  C   UNL     1     -10.536 -31.326 -14.856  0.00  0.00    +0.000 A 
ATOM      3  C   UNL     1     -11.630 -30.464 -14.782  0.00  0.00    +0.000 A 
ATOM      4  C   UNL     1     -12.393 -30.214 -15.923  0.00  0.00    +0.000 A 
ATOM      5  C   UNL     1     -13.507 -29.358 -15.901  0.00  0.00    +0.000 A 
ATOM      6  C   UNL     1     -14.231 -29.135 -17.065  0.00  0.00    +0.000 A 
ATOM      7  C   UNL     1     -13.852 -29.736 -18.257  0.00  0.00    +0.000 A 
ATOM      8  C   UNL     1     -12.744 -30.590 -18.268  0.00  0.00    +0.000 A 
ATOM      9  C   UNL     1     -12.013 -30.856 -17.117  0.00  0.00    +0.000 A 
ATOM     10  N   UNL     1     -10.979 -31.711 -17.175  0.00  0.00    +0.000 NA
ENDROOT
BRANCH   1  14
ATOM     11  C   UNL     1      -7.126 -34.914 -16.624  0.00  0.00    +0.000 A 
ATOM     12  C   UNL     1      -8.425 -35.137 -17.077  0.00  0.00    +0.000 A 
ATOM     13  C   UNL     1      -9.413 -34.167 -16.876  0.00  0.00    +0.000 A 
ATOM     14  C   UNL     1      -9.148 -32.947 -16.209  0.00  0.00    +0.000 A 
ATOM     15  C   UNL     1      -7.824 -32.753 -15.755  0.00  0.00    +0.000 A 
ATOM     16 CL   UNL     1      -7.316 -31.366 -14.845  0.00  0.00    +0.000 Cl
ATOM     17  C   UNL     1      -6.821 -33.714 -15.979  0.00  0.00    +0.000 A 
BRANCH  11  19
ATOM     18  O   UNL     1      -5.148 -35.759 -17.632  0.00  0.00    +0.000 OA
ATOM     19  C   UNL     1      -6.100 -35.950 -16.892  0.00  0.00    +0.000 C 
BRANCH  19  20
ATOM     20  O   UNL     1      -6.343 -37.129 -16.287  0.00  0.00    +0.000 OA
ATOM     21  H   UNL     1      -6.822 -37.790 -16.820  0.00  0.00    +0.000 HD
ENDBRANCH  19  20
ENDBRANCH  11  19
ENDBRANCH   1  14
BRANCH   6  22
ATOM     22  O   UNL     1     -15.314 -28.313 -16.993  0.00  0.00    +0.000 OA
ATOM     23  H   UNL     1     -16.116 -28.840 -17.139  0.00  0.00    +0.000 HD
ENDBRANCH   6  22
TORSDOF 4
ENDMDL
MODEL 2
REMARK VINA RESULT:    -7.309      2.032      8.013
REMARK INTER + INTRA:          -8.823
REMARK INTER:                  -8.412
REMARK INTRA:                  -0.412
REMARK UNBOUND:                -0.233
REMARK  Name = 
REMARK  4 active torsions:
REMARK  status: ('A' for Active; 'I' for Inactive)
REMARK    1  A    between atoms: C_2  and  O_3
REMARK    2  A    between atoms: C_2  and  C_4
REMARK    3  A    between atoms: C_7  and  C_8
REMARK    4  A    between atoms: C_13  and  O_14
REMARK                            x       y       z     vdW  Elec       q    Type
REMARK                         _______ _______ _______ _____ _____    ______ ____
ROOT
ATOM      1  C   UNL     1     -11.486 -31.506 -17.114  0.00  0.00    +0.000 A 
ATOM      2  C   UNL     1     -11.751 -32.757 -17.672  0.00  0.00    +0.000 A 
ATOM      3  C   UNL     1     -10.807 -33.775 -17.547  0.00  0.00    +0.000 A 
ATOM      4  C   UNL     1      -9.602 -33.525 -16.887  0.00  0.00    +0.000 A 
ATOM      5  C   UNL     1      -8.620 -34.518 -16.730  0.00  0.00    +0.000 A 
ATOM      6  C   UNL     1      -7.433 -34.218 -16.074  0.00  0.00    +0.000 A 
ATOM      7  C   UNL     1      -7.200 -32.940 -15.587  0.00  0.00    +0.000 A 
ATOM      8  C   UNL     1      -8.186 -31.960 -15.744  0.00  0.00    +0.000 A 
ATOM      9  C   UNL     1      -9.394 -32.232 -16.373  0.00  0.00    +0.000 A 
ATOM     10  N   UNL     1     -10.321 -31.264 -16.468  0.00  0.00    +0.000 NA
ENDROOT
BRANCH   1  14
ATOM     11  C   UNL     1     -14.321 -28.231 -16.984  0.00  0.00    +0.000 A 
ATOM     12  C   UNL     1     -13.997 -28.951 -15.835  0.00  0.00    +0.000 A 
ATOM     13  C   UNL     1     -13.086 -30.010 -15.906  0.00  0.00    +0.000 A 
ATOM     14  C   UNL     1     -12.474 -30.399 -17.121  0.00  0.00    +0.000 A 
ATOM     15  C   UNL     1     -12.829 -29.656 -18.270  0.00  0.00    +0.000 A 
ATOM     16 CL   UNL     1     -12.254 -30.025 -19.865  0.00  0.00    +0.000 Cl
ATOM     17  C   UNL     1     -13.723 -28.572 -18.198  0.00  0.00    +0.000 A 
BRANCH  11  19
ATOM     18  O   UNL     1     -16.115 -26.846 -17.695  0.00  0.00    +0.000 OA
ATOM     19  C   UNL     1     -15.260 -27.090 -16.859  0.00  0.00    +0.000 C 
BRANCH  19  20
ATOM     20  O   UNL     1     -15.049 -26.325 -15.770  0.00  0.00    +0.000 OA
ATOM     21  H   UNL     1     -15.119 -25.363 -15.906  0.00  0.00    +0.000 HD
ENDBRANCH  19  20
ENDBRANCH  11  19
ENDBRANCH   1  14
BRANCH   6  22
ATOM     22  O   UNL     1      -6.518 -35.215 -15.927  0.00  0.00    +0.000 OA
ATOM     23  H   UNL     1      -6.715 -35.918 -16.569  0.00  0.00    +0.000 HD
ENDBRANCH   6  22
TORSDOF 4
ENDMDL
MODEL 3
REMARK VINA RESULT:    -6.923      1.885      2.781
REMARK INTER + INTRA:          -8.370
REMARK INTER:                  -8.049
REMARK INTRA:                  -0.320
REMARK UNBOUND:                -0.233
REMARK  Name = 
REMARK  4 active torsions:
REMARK  status: ('A' for Active; 'I' for Inactive)
REMARK    1  A    between atoms: C_2  and  O_3
REMARK    2  A    between atoms: C_2  and  C_4
REMARK    3  A    between atoms: C_7  and  C_8
REMARK    4  A    between atoms: C_13  and  O_14
REMARK                            x       y       z     vdW  Elec       q    Type
REMARK                         _______ _______ _______ _____ _____    ______ ____
ROOT
ATOM      1  C   UNL     1     -12.529 -31.319 -16.317  0.00  0.00    +0.000 A 
ATOM      2  C   UNL     1     -13.689 -32.073 -16.142  0.00  0.00    +0.000 A 
ATOM      3  C   UNL     1     -14.932 -31.471 -16.333  0.00  0.00    +0.000 A 
ATOM      4  C   UNL     1     -15.000 -30.119 -16.674  0.00  0.00    +0.000 A 
ATOM      5  C   UNL     1     -16.227 -29.466 -16.883  0.00  0.00    +0.000 A 
ATOM      6  C   UNL     1     -16.244 -28.116 -17.212  0.00  0.00    +0.000 A 
ATOM      7  C   UNL     1     -15.060 -27.402 -17.319  0.00  0.00    +0.000 A 
ATOM      8  C   UNL     1     -13.843 -28.062 -17.113  0.00  0.00    +0.000 A 
ATOM      9  C   UNL     1     -13.788 -29.416 -16.808  0.00  0.00    +0.000 A 
ATOM     10  N   UNL     1     -12.593 -30.010 -16.654  0.00  0.00    +0.000 NA
ENDROOT
BRANCH   1  14
ATOM     11  C   UNL     1      -8.566 -33.070 -16.206  0.00  0.00    +0.000 A 
ATOM     12  C   UNL     1      -9.567 -33.602 -17.017  0.00  0.00    +0.000 A 
ATOM     13  C   UNL     1     -10.841 -33.024 -17.028  0.00  0.00    +0.000 A 
ATOM     14  C   UNL     1     -11.168 -31.906 -16.225  0.00  0.00    +0.000 A 
ATOM     15  C   UNL     1     -10.135 -31.394 -15.408  0.00  0.00    +0.000 A 
ATOM     16 CL   UNL     1     -10.355 -30.083 -14.292  0.00  0.00    +0.000 Cl
ATOM     17  C   UNL     1      -8.845 -31.955 -15.415  0.00  0.00    +0.000 A 
BRANCH  11  19
ATOM     18  O   UNL     1      -7.027 -34.871 -16.025  0.00  0.00    +0.000 OA
ATOM     19  C   UNL     1      -7.218 -33.688 -16.254  0.00  0.00    +0.000 C 
BRANCH  19  20
ATOM     20  O   UNL     1      -6.227 -32.816 -16.522  0.00  0.00    +0.000 OA
ATOM     21  H   UNL     1      -6.344 -31.916 -16.165  0.00  0.00    +0.000 HD
ENDBRANCH  19  20
ENDBRANCH  11  19
ENDBRANCH   1  14
BRANCH   6  22
ATOM     22  O   UNL     1     -17.453 -27.529 -17.424  0.00  0.00    +0.000 OA
ATOM     23  H   UNL     1     -17.316 -26.582 -17.592  0.00  0.00    +0.000 HD
ENDBRANCH   6  22
TORSDOF 4
ENDMDL
MODEL 4
REMARK VINA RESULT:    -6.749      2.123      3.228
REMARK INTER + INTRA:          -8.166
REMARK INTER:                  -7.792
REMARK INTRA:                  -0.374
REMARK UNBOUND:                -0.233
REMARK  Name = 
REMARK  4 active torsions:
REMARK  status: ('A' for Active; 'I' for Inactive)
REMARK    1  A    between atoms: C_2  and  O_3
REMARK    2  A    between atoms: C_2  and  C_4
REMARK    3  A    between atoms: C_7  and  C_8
REMARK    4  A    between atoms: C_13  and  O_14
REMARK                            x       y       z     vdW  Elec       q    Type
REMARK                         _______ _______ _______ _____ _____    ______ ____
ROOT
ATOM      1  C   UNL     1     -11.829 -30.987 -17.721  0.00  0.00    +0.000 A 
ATOM      2  C   UNL     1     -12.083 -30.538 -19.017  0.00  0.00    +0.000 A 
ATOM      3  C   UNL     1     -13.013 -29.519 -19.218  0.00  0.00    +0.000 A 
ATOM      4  C   UNL     1     -13.694 -28.978 -18.126  0.00  0.00    +0.000 A 
ATOM      5  C   UNL     1     -14.637 -27.946 -18.274  0.00  0.00    +0.000 A 
ATOM      6  C   UNL     1     -15.296 -27.447 -17.158  0.00  0.00    +0.000 A 
ATOM      7  C   UNL     1     -15.044 -27.970 -15.898  0.00  0.00    +0.000 A 
ATOM      8  C   UNL     1     -14.100 -28.994 -15.760  0.00  0.00    +0.000 A 
ATOM      9  C   UNL     1     -13.405 -29.499 -16.851  0.00  0.00    +0.000 A 
ATOM     10  N   UNL     1     -12.484 -30.459 -16.660  0.00  0.00    +0.000 NA
ENDROOT
BRANCH   1  14
ATOM     11  C   UNL     1      -8.773 -33.875 -16.672  0.00  0.00    +0.000 A 
ATOM     12  C   UNL     1      -8.700 -32.554 -16.231  0.00  0.00    +0.000 A 
ATOM     13  C   UNL     1      -9.694 -31.639 -16.592  0.00  0.00    +0.000 A 
ATOM     14  C   UNL     1     -10.789 -32.000 -17.412  0.00  0.00    +0.000 A 
ATOM     15  C   UNL     1     -10.832 -33.343 -17.849  0.00  0.00    +0.000 A 
ATOM     16 CL   UNL     1     -12.044 -33.963 -18.926  0.00  0.00    +0.000 Cl
ATOM     17  C   UNL     1      -9.849 -34.273 -17.466  0.00  0.00    +0.000 A 
BRANCH  11  19
ATOM     18  O   UNL     1      -7.768 -36.018 -16.474  0.00  0.00    +0.000 OA
ATOM     19  C   UNL     1      -7.720 -34.823 -16.234  0.00  0.00    +0.000 C 
BRANCH  19  20
ATOM     20  O   UNL     1      -6.739 -34.252 -15.507  0.00  0.00    +0.000 OA
ATOM     21  H   UNL     1      -6.944 -34.091 -14.568  0.00  0.00    +0.000 HD
ENDBRANCH  19  20
ENDBRANCH  11  19
ENDBRANCH   1  14
BRANCH   6  22
ATOM     22  O   UNL     1     -16.186 -26.435 -17.345  0.00  0.00    +0.000 OA
ATOM     23  H   UNL     1     -16.941 -26.568 -16.749  0.00  0.00    +0.000 HD
ENDBRANCH   6  22
TORSDOF 4
ENDMDL
MODEL 5
REMARK VINA RESULT:    -6.663      4.471      6.094
REMARK INTER + INTRA:          -8.064
REMARK INTER:                  -7.622
REMARK INTRA:                  -0.442
REMARK UNBOUND:                -0.233
REMARK  Name = 
REMARK  4 active torsions:
REMARK  status: ('A' for Active; 'I' for Inactive)
REMARK    1  A    between atoms: C_2  and  O_3
REMARK    2  A    between atoms: C_2  and  C_4
REMARK    3  A    between atoms: C_7  and  C_8
REMARK    4  A    between atoms: C_13  and  O_14
REMARK                            x       y       z     vdW  Elec       q    Type
REMARK                         _______ _______ _______ _____ _____    ______ ____
ROOT
ATOM      1  C   UNL     1     -10.823 -34.990 -17.776  0.00  0.00    +0.000 A 
ATOM      2  C   UNL     1     -11.024 -34.902 -19.154  0.00  0.00    +0.000 A 
ATOM      3  C   UNL     1     -11.960 -35.736 -19.763  0.00  0.00    +0.000 A 
ATOM      4  C   UNL     1     -12.666 -36.662 -18.994  0.00  0.00    +0.000 A 
ATOM      5  C   UNL     1     -13.624 -37.522 -19.558  0.00  0.00    +0.000 A 
ATOM      6  C   UNL     1     -14.295 -38.433 -18.752  0.00  0.00    +0.000 A 
ATOM      7  C   UNL     1     -14.015 -38.515 -17.396  0.00  0.00    +0.000 A 
ATOM      8  C   UNL     1     -13.063 -37.652 -16.843  0.00  0.00    +0.000 A 
ATOM      9  C   UNL     1     -12.392 -36.712 -17.614  0.00  0.00    +0.000 A 
ATOM     10  N   UNL     1     -11.512 -35.883 -17.027  0.00  0.00    +0.000 NA
ENDROOT
BRANCH   1  14
ATOM     11  C   UNL     1      -8.051 -32.376 -15.711  0.00  0.00    +0.000 A 
ATOM     12  C   UNL     1      -7.653 -33.630 -16.172  0.00  0.00    +0.000 A 
ATOM     13  C   UNL     1      -8.570 -34.459 -16.828  0.00  0.00    +0.000 A 
ATOM     14  C   UNL     1      -9.916 -34.077 -17.037  0.00  0.00    +0.000 A 
ATOM     15  C   UNL     1     -10.291 -32.803 -16.551  0.00  0.00    +0.000 A 
ATOM     16 CL   UNL     1     -11.911 -32.185 -16.634  0.00  0.00    +0.000 Cl
ATOM     17  C   UNL     1      -9.365 -31.956 -15.917  0.00  0.00    +0.000 A 
BRANCH  11  19
ATOM     18  O   UNL     1      -7.153 -31.115 -13.909  0.00  0.00    +0.000 OA
ATOM     19  C   UNL     1      -7.038 -31.512 -15.057  0.00  0.00    +0.000 C 
BRANCH  19  20
ATOM     20  O   UNL     1      -6.013 -31.168 -15.861  0.00  0.00    +0.000 OA
ATOM     21  H   UNL     1      -5.561 -30.333 -15.641  0.00  0.00    +0.000 HD
ENDBRANCH  19  20
ENDBRANCH  11  19
ENDBRANCH   1  14
BRANCH   6  22
ATOM     22  O   UNL     1     -15.228 -39.233 -19.338  0.00  0.00    +0.000 OA
ATOM     23  H   UNL     1     -14.788 -40.029 -19.679  0.00  0.00    +0.000 HD
ENDBRANCH   6  22
TORSDOF 4
ENDMDL
