MODEL 1
REMARK VINA RESULT:    -7.036      0.000      0.000
REMARK INTER + INTRA:         -10.435
REMARK INTER:                  -9.916
REMARK INTRA:                  -0.519
REMARK UNBOUND:                -0.519
REMARK  Name = 
REMARK  11 active torsions:
REMARK  status: ('A' for Active; 'I' for Inactive)
REMARK    1  A    between atoms: C_1  and  O_2
REMARK    2  A    between atoms: O_2  and  C_3
REMARK    3  A    between atoms: C_4  and  C_5
REMARK    4  A    between atoms: C_8  and  O_9
REMARK    5  A    between atoms: C_10  and  C_11
REMARK    6  A    between atoms: C_11  and  C_12
REMARK    7  A    between atoms: C_13  and  C_14
REMARK    8  A    between atoms: C_13  and  C_15
REMARK    9  A    between atoms: C_15  and  C_16
REMARK   10  A    between atoms: C_16  and  C_17
REMARK   11  A    between atoms: C_17  and  O_19
REMARK                            x       y       z     vdW  Elec       q    Type
REMARK                         _______ _______ _______ _____ _____    ______ ____
ROOT
ATOM      1  C   UNL     1     -12.380 -30.224 -18.778  0.00  0.00    +0.000 A 
ATOM      2  C   UNL     1     -13.242 -29.132 -19.039  0.00  0.00    +0.000 A 
ATOM      3  C   UNL     1     -13.453 -28.498 -20.384  0.00  0.00    +0.000 C 
ATOM      4  C   UNL     1     -13.934 -28.594 -17.955  0.00  0.00    +0.000 A 
ATOM      5  C   UNL     1     -13.855 -29.153 -16.695  0.00  0.00    +0.000 A 
ATOM      6  C   UNL     1     -13.074 -30.267 -16.436  0.00  0.00    +0.000 A 
ATOM      7  C   UNL     1     -12.317 -30.836 -17.480  0.00  0.00    +0.000 A 
ATOM      8  C   UNL     1     -14.697 -28.367 -15.789  0.00  0.00    +0.000 C 
ATOM      9  O   UNL     1     -14.902 -28.540 -14.604  0.00  0.00    +0.000 OA
ATOM     10  O   UNL     1     -15.236 -27.353 -16.534  0.00  0.00    +0.000 OA
ATOM     11  C   UNL     1     -14.830 -27.420 -17.908  0.00  0.00    +0.000 C 
ENDROOT
BRANCH   1  13
ATOM     12  C   UNL     1     -12.267 -31.808 -20.552  0.00  0.00    +0.000 C 
ATOM     13  O   UNL     1     -11.618 -30.807 -19.766  0.00  0.00    +0.000 OA
ENDBRANCH   1  13
BRANCH   6  14
ATOM     14  O   UNL     1     -13.050 -30.725 -15.152  0.00  0.00    +0.000 OA
ATOM     15  H   UNL     1     -13.380 -31.632 -15.099  0.00  0.00    +0.000 HD
ENDBRANCH   6  14
BRANCH   7  16
ATOM     16  C   UNL     1     -11.346 -31.985 -17.226  0.00  0.00    +0.000 C 
BRANCH  16  17
ATOM     17  C   UNL     1     -10.062 -31.667 -16.489  0.00  0.00    +0.000 C 
ATOM     18  C   UNL     1      -8.992 -32.464 -16.290  0.00  0.00    +0.000 C 
ATOM     19  C   UNL     1      -8.952 -33.919 -16.669  0.00  0.00    +0.000 C 
BRANCH  18  20
ATOM     20  C   UNL     1      -7.724 -31.914 -15.647  0.00  0.00    +0.000 C 
BRANCH  20  21
ATOM     21  C   UNL     1      -7.809 -31.896 -14.119  0.00  0.00    +0.000 C 
BRANCH  21  22
ATOM     22  C   UNL     1      -8.212 -30.547 -13.592  0.00  0.00    +0.000 C 
ATOM     23  O   UNL     1      -7.525 -29.544 -13.506  0.00  0.00    +0.000 OA
BRANCH  22  24
ATOM     24  O   UNL     1      -9.502 -30.532 -13.200  0.00  0.00    +0.000 OA
ATOM     25  H   UNL     1      -9.489 -30.931 -12.305  0.00  0.00    +0.000 HD
ENDBRANCH  22  24
ENDBRANCH  21  22
ENDBRANCH  20  21
ENDBRANCH  18  20
ENDBRANCH  16  17
ENDBRANCH   7  16
TORSDOF 8
ENDMDL
MODEL 2
REMARK VINA RESULT:    -6.648      1.834      6.347
REMARK INTER + INTRA:          -9.887
REMARK INTER:                  -9.137
REMARK INTRA:                  -0.750
REMARK UNBOUND:                -0.519
REMARK  Name = 
REMARK  11 active torsions:
REMARK  status: ('A' for Active; 'I' for Inactive)
REMARK    1  A    between atoms: C_1  and  O_2
REMARK    2  A    between atoms: O_2  and  C_3
REMARK    3  A    between atoms: C_4  and  C_5
REMARK    4  A    between atoms: C_8  and  O_9
REMARK    5  A    between atoms: C_10  and  C_11
REMARK    6  A    between atoms: C_11  and  C_12
REMARK    7  A    between atoms: C_13  and  C_14
REMARK    8  A    between atoms: C_13  and  C_15
REMARK    9  A    between atoms: C_15  and  C_16
REMARK   10  A    between atoms: C_16  and  C_17
REMARK   11  A    between atoms: C_17  and  O_19
REMARK                            x       y       z     vdW  Elec       q    Type
REMARK                         _______ _______ _______ _____ _____    ______ ____
ROOT
ATOM      1  C   UNL     1     -10.814 -33.069 -16.336  0.00  0.00    +0.000 A 
ATOM      2  C   UNL     1      -9.412 -33.251 -16.275  0.00  0.00    +0.000 A 
ATOM      3  C   UNL     1      -8.645 -34.322 -16.997  0.00  0.00    +0.000 C 
ATOM      4  C   UNL     1      -8.690 -32.373 -15.468  0.00  0.00    +0.000 A 
ATOM      5  C   UNL     1      -9.299 -31.317 -14.820  0.00  0.00    +0.000 A 
ATOM      6  C   UNL     1     -10.660 -31.079 -14.927  0.00  0.00    +0.000 A 
ATOM      7  C   UNL     1     -11.454 -31.953 -15.697  0.00  0.00    +0.000 A 
ATOM      8  C   UNL     1      -8.277 -30.587 -14.067  0.00  0.00    +0.000 C 
ATOM      9  O   UNL     1      -8.407 -29.594 -13.378  0.00  0.00    +0.000 OA
ATOM     10  O   UNL     1      -7.093 -31.242 -14.273  0.00  0.00    +0.000 OA
ATOM     11  C   UNL     1      -7.247 -32.367 -15.151  0.00  0.00    +0.000 C 
ENDROOT
BRANCH   1  13
ATOM     12  C   UNL     1     -11.883 -35.189 -16.503  0.00  0.00    +0.000 C 
ATOM     13  O   UNL     1     -11.629 -33.902 -17.070  0.00  0.00    +0.000 OA
ENDBRANCH   1  13
BRANCH   6  14
ATOM     14  O   UNL     1     -11.163 -30.021 -14.229  0.00  0.00    +0.000 OA
ATOM     15  H   UNL     1     -10.498 -29.649 -13.635  0.00  0.00    +0.000 HD
ENDBRANCH   6  14
BRANCH   7  16
ATOM     16  C   UNL     1     -12.973 -31.813 -15.748  0.00  0.00    +0.000 C 
BRANCH  16  17
ATOM     17  C   UNL     1     -13.571 -31.129 -16.959  0.00  0.00    +0.000 C 
ATOM     18  C   UNL     1     -13.942 -29.838 -17.091  0.00  0.00    +0.000 C 
ATOM     19  C   UNL     1     -13.947 -28.849 -15.957  0.00  0.00    +0.000 C 
BRANCH  18  20
ATOM     20  C   UNL     1     -14.389 -29.294 -18.443  0.00  0.00    +0.000 C 
BRANCH  20  21
ATOM     21  C   UNL     1     -13.528 -29.821 -19.593  0.00  0.00    +0.000 C 
BRANCH  21  22
ATOM     22  C   UNL     1     -12.193 -29.132 -19.660  0.00  0.00    +0.000 C 
ATOM     23  O   UNL     1     -11.101 -29.592 -19.377  0.00  0.00    +0.000 OA
BRANCH  22  24
ATOM     24  O   UNL     1     -12.310 -27.864 -20.107  0.00  0.00    +0.000 OA
ATOM     25  H   UNL     1     -11.463 -27.690 -20.568  0.00  0.00    +0.000 HD
ENDBRANCH  22  24
ENDBRANCH  21  22
ENDBRANCH  20  21
ENDBRANCH  18  20
ENDBRANCH  16  17
ENDBRANCH   7  16
TORSDOF 8
ENDMDL
MODEL 3
REMARK VINA RESULT:    -6.623      1.901      6.490
REMARK INTER + INTRA:          -9.852
REMARK INTER:                  -9.425
REMARK INTRA:                  -0.427
REMARK UNBOUND:                -0.519
REMARK  Name = 
REMARK  11 active torsions:
REMARK  status: ('A' for Active; 'I' for Inactive)
REMARK    1  A    between atoms: C_1  and  O_2
REMARK    2  A    between atoms: O_2  and  C_3
REMARK    3  A    between atoms: C_4  and  C_5
REMARK    4  A    between atoms: C_8  and  O_9
REMARK    5  A    between atoms: C_10  and  C_11
REMARK    6  A    between atoms: C_11  and  C_12
REMARK    7  A    between atoms: C_13  and  C_14
REMARK    8  A    between atoms: C_13  and  C_15
REMARK    9  A    between atoms: C_15  and  C_16
REMARK   10  A    between atoms: C_16  and  C_17
REMARK   11  A    between atoms: C_17  and  O_19
REMARK                            x       y       z     vdW  Elec       q    Type
REMARK                         _______ _______ _______ _____ _____    ______ ____
ROOT
ATOM      1  C   UNL     1     -10.594 -33.056 -16.345  0.00  0.00    +0.000 A 
ATOM      2  C   UNL     1      -9.193 -33.236 -16.254  0.00  0.00    +0.000 A 
ATOM      3  C   UNL     1      -8.407 -34.295 -16.974  0.00  0.00    +0.000 C 
ATOM      4  C   UNL     1      -8.494 -32.370 -15.416  0.00  0.00    +0.000 A 
ATOM      5  C   UNL     1      -9.120 -31.326 -14.766  0.00  0.00    +0.000 A 
ATOM      6  C   UNL     1     -10.479 -31.089 -14.902  0.00  0.00    +0.000 A 
ATOM      7  C   UNL     1     -11.252 -31.952 -15.704  0.00  0.00    +0.000 A 
ATOM      8  C   UNL     1      -8.118 -30.606 -13.976  0.00  0.00    +0.000 C 
ATOM      9  O   UNL     1      -8.267 -29.624 -13.275  0.00  0.00    +0.000 OA
ATOM     10  O   UNL     1      -6.928 -31.256 -14.164  0.00  0.00    +0.000 OA
ATOM     11  C   UNL     1      -7.058 -32.366 -15.064  0.00  0.00    +0.000 C 
ENDROOT
BRANCH   1  13
ATOM     12  C   UNL     1     -11.731 -35.140 -16.531  0.00  0.00    +0.000 C 
ATOM     13  O   UNL     1     -11.389 -33.880 -17.112  0.00  0.00    +0.000 OA
ENDBRANCH   1  13
BRANCH   6  14
ATOM     14  O   UNL     1     -11.001 -30.044 -14.199  0.00  0.00    +0.000 OA
ATOM     15  H   UNL     1     -11.688 -29.592 -14.707  0.00  0.00    +0.000 HD
ENDBRANCH   6  14
BRANCH   7  16
ATOM     16  C   UNL     1     -12.769 -31.815 -15.790  0.00  0.00    +0.000 C 
BRANCH  16  17
ATOM     17  C   UNL     1     -13.322 -30.625 -16.546  0.00  0.00    +0.000 C 
ATOM     18  C   UNL     1     -14.570 -30.447 -17.028  0.00  0.00    +0.000 C 
ATOM     19  C   UNL     1     -15.633 -31.511 -17.011  0.00  0.00    +0.000 C 
BRANCH  18  20
ATOM     20  C   UNL     1     -14.983 -29.111 -17.636  0.00  0.00    +0.000 C 
BRANCH  20  21
ATOM     21  C   UNL     1     -14.248 -27.931 -16.995  0.00  0.00    +0.000 C 
BRANCH  21  22
ATOM     22  C   UNL     1     -14.925 -27.460 -15.737  0.00  0.00    +0.000 C 
ATOM     23  O   UNL     1     -15.180 -28.110 -14.739  0.00  0.00    +0.000 OA
BRANCH  22  24
ATOM     24  O   UNL     1     -15.242 -26.150 -15.805  0.00  0.00    +0.000 OA
ATOM     25  H   UNL     1     -15.734 -25.977 -14.975  0.00  0.00    +0.000 HD
ENDBRANCH  22  24
ENDBRANCH  21  22
ENDBRANCH  20  21
ENDBRANCH  18  20
ENDBRANCH  16  17
ENDBRANCH   7  16
TORSDOF 8
ENDMDL
MODEL 4
REMARK VINA RESULT:    -6.332      3.468      4.868
REMARK INTER + INTRA:          -9.442
REMARK INTER:                  -8.962
REMARK INTRA:                  -0.481
REMARK UNBOUND:                -0.519
REMARK  Name = 
REMARK  11 active torsions:
REMARK  status: ('A' for Active; 'I' for Inactive)
REMARK    1  A    between atoms: C_1  and  O_2
REMARK    2  A    between atoms: O_2  and  C_3
REMARK    3  A    between atoms: C_4  and  C_5
REMARK    4  A    between atoms: C_8  and  O_9
REMARK    5  A    between atoms: C_10  and  C_11
REMARK    6  A    between atoms: C_11  and  C_12
REMARK    7  A    between atoms: C_13  and  C_14
REMARK    8  A    between atoms: C_13  and  C_15
REMARK    9  A    between atoms: C_15  and  C_16
REMARK   10  A    between atoms: C_16  and  C_17
REMARK   11  A    between atoms: C_17  and  O_19
REMARK                            x       y       z     vdW  Elec       q    Type
REMARK                         _______ _______ _______ _____ _____    ______ ____
ROOT
ATOM      1  C   UNL     1     -12.913 -31.323 -17.012  0.00  0.00    +0.000 A 
ATOM      2  C   UNL     1     -14.083 -31.817 -17.638  0.00  0.00    +0.000 A 
ATOM      3  C   UNL     1     -15.182 -30.969 -18.212  0.00  0.00    +0.000 C 
ATOM      4  C   UNL     1     -14.230 -33.201 -17.710  0.00  0.00    +0.000 A 
ATOM      5  C   UNL     1     -13.243 -34.059 -17.270  0.00  0.00    +0.000 A 
ATOM      6  C   UNL     1     -12.059 -33.593 -16.721  0.00  0.00    +0.000 A 
ATOM      7  C   UNL     1     -11.863 -32.204 -16.583  0.00  0.00    +0.000 A 
ATOM      8  C   UNL     1     -13.696 -35.435 -17.489  0.00  0.00    +0.000 C 
ATOM      9  O   UNL     1     -13.113 -36.473 -17.246  0.00  0.00    +0.000 OA
ATOM     10  O   UNL     1     -14.949 -35.354 -18.035  0.00  0.00    +0.000 OA
ATOM     11  C   UNL     1     -15.365 -33.994 -18.227  0.00  0.00    +0.000 C 
ENDROOT
BRANCH   1  13
ATOM     12  C   UNL     1     -13.483 -29.317 -15.865  0.00  0.00    +0.000 C 
ATOM     13  O   UNL     1     -12.684 -29.975 -16.850  0.00  0.00    +0.000 OA
ENDBRANCH   1  13
BRANCH   6  14
ATOM     14  O   UNL     1     -11.160 -34.527 -16.299  0.00  0.00    +0.000 OA
ATOM     15  H   UNL     1     -10.594 -34.819 -17.025  0.00  0.00    +0.000 HD
ENDBRANCH   6  14
BRANCH   7  16
ATOM     16  C   UNL     1     -10.636 -31.638 -15.875  0.00  0.00    +0.000 C 
BRANCH  16  17
ATOM     17  C   UNL     1      -9.280 -32.162 -16.299  0.00  0.00    +0.000 C 
ATOM     18  C   UNL     1      -8.145 -32.229 -15.572  0.00  0.00    +0.000 C 
ATOM     19  C   UNL     1      -7.997 -31.642 -14.196  0.00  0.00    +0.000 C 
BRANCH  18  20
ATOM     20  C   UNL     1      -6.910 -32.929 -16.128  0.00  0.00    +0.000 C 
BRANCH  20  21
ATOM     21  C   UNL     1      -6.764 -34.357 -15.595  0.00  0.00    +0.000 C 
BRANCH  21  22
ATOM     22  C   UNL     1      -7.096 -35.386 -16.639  0.00  0.00    +0.000 C 
ATOM     23  O   UNL     1      -6.321 -36.028 -17.327  0.00  0.00    +0.000 OA
BRANCH  22  24
ATOM     24  O   UNL     1      -8.428 -35.565 -16.755  0.00  0.00    +0.000 OA
ATOM     25  H   UNL     1      -8.539 -36.010 -17.621  0.00  0.00    +0.000 HD
ENDBRANCH  22  24
ENDBRANCH  21  22
ENDBRANCH  20  21
ENDBRANCH  18  20
ENDBRANCH  16  17
ENDBRANCH   7  16
TORSDOF 8
ENDMDL
MODEL 5
REMARK VINA RESULT:    -6.118      4.619      7.505
REMARK INTER + INTRA:          -9.140
REMARK INTER:                  -8.606
REMARK INTRA:                  -0.534
REMARK UNBOUND:                -0.519
REMARK  Name = 
REMARK  11 active torsions:
REMARK  status: ('A' for Active; 'I' for Inactive)
REMARK    1  A    between atoms: C_1  and  O_2
REMARK    2  A    between atoms: O_2  and  C_3
REMARK    3  A    between atoms: C_4  and  C_5
REMARK    4  A    between atoms: C_8  and  O_9
REMARK    5  A    between atoms: C_10  and  C_11
REMARK    6  A    between atoms: C_11  and  C_12
REMARK    7  A    between atoms: C_13  and  C_14
REMARK    8  A    between atoms: C_13  and  C_15
REMARK    9  A    between atoms: C_15  and  C_16
REMARK   10  A    between atoms: C_16  and  C_17
REMARK   11  A    between atoms: C_17  and  O_19
REMARK                            x       y       z     vdW  Elec       q    Type
REMARK                         _______ _______ _______ _____ _____    ______ ____
ROOT
ATOM      1  C   UNL     1     -11.423 -32.128 -16.157  0.00  0.00    +0.000 A 
ATOM      2  C   UNL     1     -10.436 -31.505 -15.355  0.00  0.00    +0.000 A 
ATOM      3  C   UNL     1     -10.670 -30.329 -14.451  0.00  0.00    +0.000 C 
ATOM      4  C   UNL     1      -9.142 -32.018 -15.427  0.00  0.00    +0.000 A 
ATOM      5  C   UNL     1      -8.846 -33.138 -16.178  0.00  0.00    +0.000 A 
ATOM      6  C   UNL     1      -9.814 -33.804 -16.911  0.00  0.00    +0.000 A 
ATOM      7  C   UNL     1     -11.136 -33.314 -16.914  0.00  0.00    +0.000 A 
ATOM      8  C   UNL     1      -7.415 -33.422 -16.038  0.00  0.00    +0.000 C 
ATOM      9  O   UNL     1      -6.770 -34.326 -16.531  0.00  0.00    +0.000 OA
ATOM     10  O   UNL     1      -6.899 -32.451 -15.224  0.00  0.00    +0.000 OA
ATOM     11  C   UNL     1      -7.907 -31.533 -14.775  0.00  0.00    +0.000 C 
ENDROOT
BRANCH   1  13
ATOM     12  C   UNL     1     -12.983 -30.580 -17.071  0.00  0.00    +0.000 C 
ATOM     13  O   UNL     1     -12.724 -31.678 -16.195  0.00  0.00    +0.000 OA
ENDBRANCH   1  13
BRANCH   6  14
ATOM     14  O   UNL     1      -9.410 -34.887 -17.635  0.00  0.00    +0.000 OA
ATOM     15  H   UNL     1      -9.577 -34.757 -18.578  0.00  0.00    +0.000 HD
ENDBRANCH   6  14
BRANCH   7  16
ATOM     16  C   UNL     1     -12.214 -33.933 -17.799  0.00  0.00    +0.000 C 
BRANCH  16  17
ATOM     17  C   UNL     1     -12.901 -35.184 -17.293  0.00  0.00    +0.000 C 
ATOM     18  C   UNL     1     -12.786 -36.446 -17.756  0.00  0.00    +0.000 C 
ATOM     19  C   UNL     1     -12.023 -36.815 -18.999  0.00  0.00    +0.000 C 
BRANCH  18  20
ATOM     20  C   UNL     1     -13.447 -37.606 -17.019  0.00  0.00    +0.000 C 
BRANCH  20  21
ATOM     21  C   UNL     1     -13.103 -38.960 -17.644  0.00  0.00    +0.000 C 
BRANCH  21  22
ATOM     22  C   UNL     1     -13.764 -40.100 -16.919  0.00  0.00    +0.000 C 
ATOM     23  O   UNL     1     -13.351 -41.239 -16.788  0.00  0.00    +0.000 OA
BRANCH  22  24
ATOM     24  O   UNL     1     -14.939 -39.727 -16.373  0.00  0.00    +0.000 OA
ATOM     25  H   UNL     1     -14.686 -39.266 -15.545  0.00  0.00    +0.000 HD
ENDBRANCH  22  24
ENDBRANCH  21  22
ENDBRANCH  20  21
ENDBRANCH  18  20
ENDBRANCH  16  17
ENDBRANCH   7  16
TORSDOF 8
ENDMDL
