MODEL 1
REMARK VINA RESULT:    -7.700      0.000      0.000
REMARK INTER + INTRA:          -8.773
REMARK INTER:                  -9.051
REMARK INTRA:                   0.278
REMARK UNBOUND:                 0.278
REMARK  Name = 
REMARK  3 active torsions:
REMARK  status: ('A' for Active; 'I' for Inactive)
REMARK    1  A    between atoms: N_11  and  C_12
REMARK    2  A    between atoms: C_15  and  O_16
REMARK    3  A    between atoms: O_16  and  C_17
REMARK                            x       y       z     vdW  Elec       q    Type
REMARK                         _______ _______ _______ _____ _____    ______ ____
ROOT
ATOM      1  N   UNL     1     -11.262 -30.051 -14.409  0.00  0.00    +0.000 NA
ATOM      2  C   UNL     1     -10.804 -30.747 -15.400  0.00  0.00    +0.000 C 
ATOM      3  N   UNL     1     -11.535 -31.099 -16.490  0.00  0.00    +0.000 N 
ATOM      4  C   UNL     1     -12.855 -31.271 -16.755  0.00  0.00    +0.000 C 
ATOM      5  N   UNL     1     -13.726 -31.621 -15.869  0.00  0.00    +0.000 NA
ATOM      6  N   UNL     1     -13.168 -31.093 -18.076  0.00  0.00    +0.000 N 
ATOM      7  C   UNL     1     -14.490 -31.411 -18.599  0.00  0.00    +0.000 C 
ATOM      8  C   UNL     1     -14.280 -31.262 -20.100  0.00  0.00    +0.000 C 
ATOM      9  C   UNL     1     -13.352 -30.059 -20.210  0.00  0.00    +0.000 C 
ATOM     10  C   UNL     1     -12.576 -30.034 -18.895  0.00  0.00    +0.000 C 
ATOM     11  N   UNL     1      -9.478 -31.086 -15.449  0.00  0.00    +0.000 N 
ATOM     12  H   UNL     1     -12.248 -29.840 -14.612  0.00  0.00    +0.000 HD
ATOM     13  H   UNL     1     -10.955 -31.377 -17.268  0.00  0.00    +0.000 HD
ATOM     14  H   UNL     1     -13.238 -31.763 -14.978  0.00  0.00    +0.000 HD
ATOM     15  H   UNL     1      -8.962 -30.674 -14.675  0.00  0.00    +0.000 HD
ENDROOT
BRANCH  11  16
ATOM     16  C   UNL     1      -8.970 -32.351 -15.810  0.00  0.00    +0.000 A 
ATOM     17  C   UNL     1      -7.654 -32.682 -15.461  0.00  0.00    +0.000 A 
ATOM     18  C   UNL     1      -7.076 -33.895 -15.872  0.00  0.00    +0.000 A 
ATOM     19  C   UNL     1      -7.825 -34.816 -16.596  0.00  0.00    +0.000 A 
ATOM     20  C   UNL     1      -9.142 -34.497 -16.938  0.00  0.00    +0.000 A 
ATOM     21  C   UNL     1      -9.708 -33.286 -16.546  0.00  0.00    +0.000 A 
BRANCH  19  22
ATOM     22  O   UNL     1      -7.421 -36.029 -17.057  0.00  0.00    +0.000 OA
BRANCH  22  23
ATOM     23  C   UNL     1      -6.107 -36.494 -16.805  0.00  0.00    +0.000 C 
ATOM     24  F   UNL     1      -5.760 -36.457 -15.502  0.00  0.00    +0.000 F 
ATOM     25  F   UNL     1      -6.030 -37.780 -17.213  0.00  0.00    +0.000 F 
ATOM     26  F   UNL     1      -5.220 -35.770 -17.521  0.00  0.00    +0.000 F 
ENDBRANCH  22  23
ENDBRANCH  19  22
ENDBRANCH  11  16
TORSDOF 3
ENDMDL
MODEL 2
REMARK VINA RESULT:    -7.319      3.540      4.733
REMARK INTER + INTRA:          -8.325
REMARK INTER:                  -7.946
REMARK INTRA:                  -0.379
REMARK UNBOUND:                 0.278
REMARK  Name = 
REMARK  3 active torsions:
REMARK  status: ('A' for Active; 'I' for Inactive)
REMARK    1  A    between atoms: N_11  and  C_12
REMARK    2  A    between atoms: C_15  and  O_16
REMARK    3  A    between atoms: O_16  and  C_17
REMARK                            x       y       z     vdW  Elec       q    Type
REMARK                         _______ _______ _______ _____ _____    ______ ____
ROOT
ATOM      1  N   UNL     1     -14.670 -33.297 -18.198  0.00  0.00    +0.000 NA
ATOM      2  C   UNL     1     -14.017 -32.514 -17.400  0.00  0.00    +0.000 C 
ATOM      3  N   UNL     1     -14.112 -31.159 -17.410  0.00  0.00    +0.000 N 
ATOM      4  C   UNL     1     -14.453 -30.220 -18.330  0.00  0.00    +0.000 C 
ATOM      5  N   UNL     1     -14.297 -30.371 -19.603  0.00  0.00    +0.000 NA
ATOM      6  N   UNL     1     -14.927 -29.064 -17.771  0.00  0.00    +0.000 N 
ATOM      7  C   UNL     1     -15.173 -27.871 -18.571  0.00  0.00    +0.000 C 
ATOM      8  C   UNL     1     -15.465 -26.828 -17.501  0.00  0.00    +0.000 C 
ATOM      9  C   UNL     1     -16.272 -27.600 -16.465  0.00  0.00    +0.000 C 
ATOM     10  C   UNL     1     -15.825 -29.053 -16.616  0.00  0.00    +0.000 C 
ATOM     11  N   UNL     1     -13.250 -33.040 -16.395  0.00  0.00    +0.000 N 
ATOM     12  H   UNL     1     -15.240 -32.701 -18.814  0.00  0.00    +0.000 HD
ATOM     13  H   UNL     1     -13.772 -30.743 -16.556  0.00  0.00    +0.000 HD
ATOM     14  H   UNL     1     -13.860 -31.285 -19.765  0.00  0.00    +0.000 HD
ATOM     15  H   UNL     1     -13.334 -34.053 -16.357  0.00  0.00    +0.000 HD
ENDROOT
BRANCH  11  16
ATOM     16  C   UNL     1     -11.958 -32.602 -16.037  0.00  0.00    +0.000 A 
ATOM     17  C   UNL     1     -11.825 -31.548 -15.125  0.00  0.00    +0.000 A 
ATOM     18  C   UNL     1     -10.563 -31.020 -14.802  0.00  0.00    +0.000 A 
ATOM     19  C   UNL     1      -9.413 -31.576 -15.351  0.00  0.00    +0.000 A 
ATOM     20  C   UNL     1      -9.538 -32.636 -16.253  0.00  0.00    +0.000 A 
ATOM     21  C   UNL     1     -10.791 -33.146 -16.587  0.00  0.00    +0.000 A 
BRANCH  19  22
ATOM     22  O   UNL     1      -8.126 -31.193 -15.136  0.00  0.00    +0.000 OA
BRANCH  22  23
ATOM     23  C   UNL     1      -7.688 -30.839 -13.837  0.00  0.00    +0.000 C 
ATOM     24  F   UNL     1      -8.145 -31.659 -12.868  0.00  0.00    +0.000 F 
ATOM     25  F   UNL     1      -6.337 -30.896 -13.818  0.00  0.00    +0.000 F 
ATOM     26  F   UNL     1      -8.060 -29.572 -13.557  0.00  0.00    +0.000 F 
ENDBRANCH  22  23
ENDBRANCH  19  22
ENDBRANCH  11  16
TORSDOF 3
ENDMDL
MODEL 3
REMARK VINA RESULT:    -7.163      4.479      5.473
REMARK INTER + INTRA:          -8.141
REMARK INTER:                  -7.651
REMARK INTRA:                  -0.491
REMARK UNBOUND:                 0.278
REMARK  Name = 
REMARK  3 active torsions:
REMARK  status: ('A' for Active; 'I' for Inactive)
REMARK    1  A    between atoms: N_11  and  C_12
REMARK    2  A    between atoms: C_15  and  O_16
REMARK    3  A    between atoms: O_16  and  C_17
REMARK                            x       y       z     vdW  Elec       q    Type
REMARK                         _______ _______ _______ _____ _____    ______ ____
ROOT
ATOM      1  N   UNL     1     -11.846 -36.787 -18.507  0.00  0.00    +0.000 NA
ATOM      2  C   UNL     1     -11.463 -35.551 -18.544  0.00  0.00    +0.000 C 
ATOM      3  N   UNL     1     -10.981 -34.932 -19.653  0.00  0.00    +0.000 N 
ATOM      4  C   UNL     1     -10.372 -35.335 -20.797  0.00  0.00    +0.000 C 
ATOM      5  N   UNL     1      -9.645 -36.398 -20.889  0.00  0.00    +0.000 NA
ATOM      6  N   UNL     1     -10.554 -34.467 -21.840  0.00  0.00    +0.000 N 
ATOM      7  C   UNL     1      -9.834 -34.619 -23.098  0.00  0.00    +0.000 C 
ATOM      8  C   UNL     1     -10.195 -33.331 -23.826  0.00  0.00    +0.000 C 
ATOM      9  C   UNL     1     -11.657 -33.113 -23.455  0.00  0.00    +0.000 C 
ATOM     10  C   UNL     1     -11.830 -33.800 -22.103  0.00  0.00    +0.000 C 
ATOM     11  N   UNL     1     -11.632 -34.745 -17.450  0.00  0.00    +0.000 N 
ATOM     12  H   UNL     1     -11.707 -37.181 -19.447  0.00  0.00    +0.000 HD
ATOM     13  H   UNL     1     -11.009 -33.927 -19.575  0.00  0.00    +0.000 HD
ATOM     14  H   UNL     1      -9.602 -36.837 -19.963  0.00  0.00    +0.000 HD
ATOM     15  H   UNL     1     -12.124 -35.232 -16.704  0.00  0.00    +0.000 HD
ENDROOT
BRANCH  11  16
ATOM     16  C   UNL     1     -10.678 -33.835 -16.949  0.00  0.00    +0.000 A 
ATOM     17  C   UNL     1      -9.347 -34.250 -16.814  0.00  0.00    +0.000 A 
ATOM     18  C   UNL     1      -8.377 -33.409 -16.242  0.00  0.00    +0.000 A 
ATOM     19  C   UNL     1      -8.718 -32.121 -15.843  0.00  0.00    +0.000 A 
ATOM     20  C   UNL     1     -10.042 -31.697 -15.986  0.00  0.00    +0.000 A 
ATOM     21  C   UNL     1     -11.006 -32.539 -16.536  0.00  0.00    +0.000 A 
BRANCH  19  22
ATOM     22  O   UNL     1      -7.903 -31.186 -15.285  0.00  0.00    +0.000 OA
BRANCH  22  23
ATOM     23  C   UNL     1      -7.743 -31.118 -13.880  0.00  0.00    +0.000 C 
ATOM     24  F   UNL     1      -8.903 -31.200 -13.197  0.00  0.00    +0.000 F 
ATOM     25  F   UNL     1      -6.966 -32.156 -13.495  0.00  0.00    +0.000 F 
ATOM     26  F   UNL     1      -7.111 -29.973 -13.546  0.00  0.00    +0.000 F 
ENDBRANCH  22  23
ENDBRANCH  19  22
ENDBRANCH  11  16
TORSDOF 3
ENDMDL
MODEL 4
REMARK VINA RESULT:    -6.872      3.634      4.633
REMARK INTER + INTRA:          -7.800
REMARK INTER:                  -7.717
REMARK INTRA:                  -0.082
REMARK UNBOUND:                 0.278
REMARK  Name = 
REMARK  3 active torsions:
REMARK  status: ('A' for Active; 'I' for Inactive)
REMARK    1  A    between atoms: N_11  and  C_12
REMARK    2  A    between atoms: C_15  and  O_16
REMARK    3  A    between atoms: O_16  and  C_17
REMARK                            x       y       z     vdW  Elec       q    Type
REMARK                         _______ _______ _______ _____ _____    ______ ____
ROOT
ATOM      1  N   UNL     1     -11.042 -35.921 -19.602  0.00  0.00    +0.000 NA
ATOM      2  C   UNL     1     -11.019 -34.886 -18.826  0.00  0.00    +0.000 C 
ATOM      3  N   UNL     1     -11.601 -33.694 -19.122  0.00  0.00    +0.000 N 
ATOM      4  C   UNL     1     -11.953 -33.047 -20.261  0.00  0.00    +0.000 C 
ATOM      5  N   UNL     1     -11.355 -33.208 -21.394  0.00  0.00    +0.000 NA
ATOM      6  N   UNL     1     -12.974 -32.152 -20.080  0.00  0.00    +0.000 N 
ATOM      7  C   UNL     1     -13.376 -31.226 -21.130  0.00  0.00    +0.000 C 
ATOM      8  C   UNL     1     -14.360 -30.324 -20.397  0.00  0.00    +0.000 C 
ATOM      9  C   UNL     1     -15.107 -31.286 -19.482  0.00  0.00    +0.000 C 
ATOM     10  C   UNL     1     -14.130 -32.432 -19.227  0.00  0.00    +0.000 C 
ATOM     11  N   UNL     1     -10.474 -34.977 -17.572  0.00  0.00    +0.000 N 
ATOM     12  H   UNL     1     -11.564 -35.659 -20.450  0.00  0.00    +0.000 HD
ATOM     13  H   UNL     1     -11.731 -33.117 -18.304  0.00  0.00    +0.000 HD
ATOM     14  H   UNL     1     -10.584 -33.870 -21.257  0.00  0.00    +0.000 HD
ATOM     15  H   UNL     1     -10.183 -35.929 -17.364  0.00  0.00    +0.000 HD
ENDROOT
BRANCH  11  16
ATOM     16  C   UNL     1      -9.625 -34.022 -16.978  0.00  0.00    +0.000 A 
ATOM     17  C   UNL     1      -8.289 -34.361 -16.726  0.00  0.00    +0.000 A 
ATOM     18  C   UNL     1      -7.426 -33.474 -16.060  0.00  0.00    +0.000 A 
ATOM     19  C   UNL     1      -7.877 -32.214 -15.682  0.00  0.00    +0.000 A 
ATOM     20  C   UNL     1      -9.205 -31.865 -15.941  0.00  0.00    +0.000 A 
ATOM     21  C   UNL     1     -10.064 -32.752 -16.584  0.00  0.00    +0.000 A 
BRANCH  19  22
ATOM     22  O   UNL     1      -7.172 -31.242 -15.043  0.00  0.00    +0.000 OA
BRANCH  22  23
ATOM     23  C   UNL     1      -7.594 -30.759 -13.781  0.00  0.00    +0.000 C 
ATOM     24  F   UNL     1      -7.886 -31.735 -12.896  0.00  0.00    +0.000 F 
ATOM     25  F   UNL     1      -6.591 -30.019 -13.257  0.00  0.00    +0.000 F 
ATOM     26  F   UNL     1      -8.672 -29.962 -13.932  0.00  0.00    +0.000 F 
ENDBRANCH  22  23
ENDBRANCH  19  22
ENDBRANCH  11  16
TORSDOF 3
ENDMDL
MODEL 5
REMARK VINA RESULT:    -6.296      5.402      6.680
REMARK INTER + INTRA:          -7.122
REMARK INTER:                  -6.594
REMARK INTRA:                  -0.528
REMARK UNBOUND:                 0.278
REMARK  Name = 
REMARK  3 active torsions:
REMARK  status: ('A' for Active; 'I' for Inactive)
REMARK    1  A    between atoms: N_11  and  C_12
REMARK    2  A    between atoms: C_15  and  O_16
REMARK    3  A    between atoms: O_16  and  C_17
REMARK                            x       y       z     vdW  Elec       q    Type
REMARK                         _______ _______ _______ _____ _____    ______ ____
ROOT
ATOM      1  N   UNL     1     -11.277 -36.315 -20.994  0.00  0.00    +0.000 NA
ATOM      2  C   UNL     1     -11.433 -35.918 -19.772  0.00  0.00    +0.000 C 
ATOM      3  N   UNL     1     -12.564 -36.106 -19.044  0.00  0.00    +0.000 N 
ATOM      4  C   UNL     1     -13.877 -36.299 -19.330  0.00  0.00    +0.000 C 
ATOM      5  N   UNL     1     -14.454 -35.851 -20.394  0.00  0.00    +0.000 NA
ATOM      6  N   UNL     1     -14.551 -36.970 -18.344  0.00  0.00    +0.000 N 
ATOM      7  C   UNL     1     -16.000 -37.116 -18.371  0.00  0.00    +0.000 C 
ATOM      8  C   UNL     1     -16.282 -37.716 -17.000  0.00  0.00    +0.000 C 
ATOM      9  C   UNL     1     -15.119 -38.677 -16.789  0.00  0.00    +0.000 C 
ATOM     10  C   UNL     1     -13.974 -38.103 -17.620  0.00  0.00    +0.000 C 
ATOM     11  N   UNL     1     -10.383 -35.360 -19.091  0.00  0.00    +0.000 N 
ATOM     12  H   UNL     1     -12.152 -36.774 -21.282  0.00  0.00    +0.000 HD
ATOM     13  H   UNL     1     -12.406 -35.998 -18.053  0.00  0.00    +0.000 HD
ATOM     14  H   UNL     1     -13.761 -35.324 -20.936  0.00  0.00    +0.000 HD
ATOM     15  H   UNL     1      -9.532 -35.375 -19.647  0.00  0.00    +0.000 HD
ENDROOT
BRANCH  11  16
ATOM     16  C   UNL     1     -10.458 -34.217 -18.269  0.00  0.00    +0.000 A 
ATOM     17  C   UNL     1     -11.237 -33.129 -18.683  0.00  0.00    +0.000 A 
ATOM     18  C   UNL     1     -11.275 -31.937 -17.940  0.00  0.00    +0.000 A 
ATOM     19  C   UNL     1     -10.573 -31.836 -16.744  0.00  0.00    +0.000 A 
ATOM     20  C   UNL     1      -9.803 -32.922 -16.319  0.00  0.00    +0.000 A 
ATOM     21  C   UNL     1      -9.751 -34.097 -17.066  0.00  0.00    +0.000 A 
BRANCH  19  22
ATOM     22  O   UNL     1     -10.513 -30.765 -15.909  0.00  0.00    +0.000 OA
BRANCH  22  23
ATOM     23  C   UNL     1     -11.404 -30.656 -14.814  0.00  0.00    +0.000 C 
ATOM     24  F   UNL     1     -12.080 -31.793 -14.549  0.00  0.00    +0.000 F 
ATOM     25  F   UNL     1     -10.682 -30.343 -13.714  0.00  0.00    +0.000 F 
ATOM     26  F   UNL     1     -12.285 -29.659 -15.037  0.00  0.00    +0.000 F 
ENDBRANCH  22  23
ENDBRANCH  19  22
ENDBRANCH  11  16
TORSDOF 3
ENDMDL
