MODEL 1
REMARK VINA RESULT:    -7.578      0.000      0.000
REMARK INTER + INTRA:         -11.228
REMARK INTER:                 -10.015
REMARK INTRA:                  -1.213
REMARK UNBOUND:                -1.213
REMARK  Name = 
REMARK  8 active torsions:
REMARK  status: ('A' for Active; 'I' for Inactive)
REMARK    1  A    between atoms: C_1  and  C_2
REMARK    2  A    between atoms: C_2  and  C_3
REMARK    3  A    between atoms: C_5  and  C_6
REMARK    4  A    between atoms: C_9  and  C_10
REMARK    5  A    between atoms: C_10  and  O_12
REMARK    6  A    between atoms: C_13  and  C_14
REMARK    7  A    between atoms: C_23  and  O_24
REMARK    8  A    between atoms: C_26  and  O_27
REMARK                            x       y       z     vdW  Elec       q    Type
REMARK                         _______ _______ _______ _____ _____    ______ ____
ROOT
ATOM      1  C   UNL     1     -10.959 -31.482 -16.770  0.00  0.00    +0.000 A 
ATOM      2  N   UNL     1     -11.843 -30.649 -16.190  0.00  0.00    +0.000 NA
ATOM      3  N   UNL     1     -11.227 -30.252 -15.067  0.00  0.00    +0.000 N 
ATOM      4  C   UNL     1     -10.024 -30.853 -14.826  0.00  0.00    +0.000 A 
ATOM      5  C   UNL     1      -9.813 -31.693 -15.913  0.00  0.00    +0.000 A 
ATOM      6  H   UNL     1     -11.689 -29.570 -14.471  0.00  0.00    +0.000 HD
ENDROOT
BRANCH   5   7
ATOM      7  C   UNL     1      -8.645 -32.557 -16.103  0.00  0.00    +0.000 A 
ATOM      8  C   UNL     1      -7.342 -32.018 -16.205  0.00  0.00    +0.000 A 
ATOM      9  C   UNL     1      -6.233 -32.831 -16.468  0.00  0.00    +0.000 A 
ATOM     10  C   UNL     1      -6.460 -34.168 -16.690  0.00  0.00    +0.000 A 
ATOM     11  C   UNL     1      -7.719 -34.706 -16.607  0.00  0.00    +0.000 A 
ATOM     12  C   UNL     1      -8.818 -33.942 -16.275  0.00  0.00    +0.000 A 
ATOM     13  O   UNL     1      -7.740 -36.030 -16.916  0.00  0.00    +0.000 OA
ATOM     14  C   UNL     1      -6.345 -36.263 -17.199  0.00  0.00    +0.000 C 
ATOM     15  O   UNL     1      -5.521 -35.091 -17.028  0.00  0.00    +0.000 OA
ENDBRANCH   5   7
BRANCH   1  18
ATOM     16  C   UNL     1     -12.087 -34.036 -19.325  0.00  0.00    +0.000 A 
ATOM     17  C   UNL     1     -11.536 -33.463 -18.165  0.00  0.00    +0.000 A 
ATOM     18  C   UNL     1     -11.264 -32.088 -18.075  0.00  0.00    +0.000 A 
ATOM     19  C   UNL     1     -11.390 -31.316 -19.237  0.00  0.00    +0.000 A 
ATOM     20  C   UNL     1     -11.866 -31.878 -20.419  0.00  0.00    +0.000 A 
ATOM     21  C   UNL     1     -12.233 -33.224 -20.454  0.00  0.00    +0.000 A 
BRANCH  16  23
ATOM     22  C   UNL     1     -12.484 -36.032 -17.846  0.00  0.00    +0.000 C 
ATOM     23  C   UNL     1     -12.534 -35.475 -19.257  0.00  0.00    +0.000 C 
ENDBRANCH  16  23
BRANCH  19  24
ATOM     24  O   UNL     1     -11.073 -29.983 -19.267  0.00  0.00    +0.000 OA
ATOM     25  H   UNL     1     -10.408 -29.876 -19.983  0.00  0.00    +0.000 HD
ENDBRANCH  19  24
BRANCH  21  26
ATOM     26  O   UNL     1     -12.742 -33.675 -21.638  0.00  0.00    +0.000 OA
ATOM     27  H   UNL     1     -13.624 -34.046 -21.493  0.00  0.00    +0.000 HD
ENDBRANCH  21  26
ENDBRANCH   1  18
BRANCH   4  28
ATOM     28  C   UNL     1      -9.255 -30.581 -13.649  0.00  0.00    +0.000 C 
ATOM     29  O   UNL     1      -8.680 -31.355 -12.902  0.00  0.00    +0.000 OA
BRANCH  28  30
ATOM     30  O   UNL     1      -9.166 -29.249 -13.439  0.00  0.00    +0.000 OA
ATOM     31  H   UNL     1      -8.217 -29.072 -13.620  0.00  0.00    +0.000 HD
ENDBRANCH  28  30
ENDBRANCH   4  28
TORSDOF 7
ENDMDL
MODEL 2
REMARK VINA RESULT:    -7.554      2.233      5.890
REMARK INTER + INTRA:         -11.195
REMARK INTER:                  -9.790
REMARK INTRA:                  -1.405
REMARK UNBOUND:                -1.213
REMARK  Name = 
REMARK  8 active torsions:
REMARK  status: ('A' for Active; 'I' for Inactive)
REMARK    1  A    between atoms: C_1  and  C_2
REMARK    2  A    between atoms: C_2  and  C_3
REMARK    3  A    between atoms: C_5  and  C_6
REMARK    4  A    between atoms: C_9  and  C_10
REMARK    5  A    between atoms: C_10  and  O_12
REMARK    6  A    between atoms: C_13  and  C_14
REMARK    7  A    between atoms: C_23  and  O_24
REMARK    8  A    between atoms: C_26  and  O_27
REMARK                            x       y       z     vdW  Elec       q    Type
REMARK                         _______ _______ _______ _____ _____    ______ ____
ROOT
ATOM      1  C   UNL     1     -11.794 -31.223 -16.689  0.00  0.00    +0.000 A 
ATOM      2  N   UNL     1     -12.350 -30.001 -16.777  0.00  0.00    +0.000 NA
ATOM      3  N   UNL     1     -13.407 -30.182 -17.583  0.00  0.00    +0.000 N 
ATOM      4  C   UNL     1     -13.523 -31.438 -18.108  0.00  0.00    +0.000 A 
ATOM      5  C   UNL     1     -12.465 -32.158 -17.565  0.00  0.00    +0.000 A 
ATOM      6  H   UNL     1     -14.022 -29.394 -17.767  0.00  0.00    +0.000 HD
ENDROOT
BRANCH   5   7
ATOM      7  C   UNL     1     -12.170 -33.567 -17.839  0.00  0.00    +0.000 A 
ATOM      8  C   UNL     1     -11.257 -33.942 -18.851  0.00  0.00    +0.000 A 
ATOM      9  C   UNL     1     -11.033 -35.287 -19.172  0.00  0.00    +0.000 A 
ATOM     10  C   UNL     1     -11.781 -36.233 -18.513  0.00  0.00    +0.000 A 
ATOM     11  C   UNL     1     -12.680 -35.886 -17.537  0.00  0.00    +0.000 A 
ATOM     12  C   UNL     1     -12.866 -34.575 -17.149  0.00  0.00    +0.000 A 
ATOM     13  O   UNL     1     -13.359 -36.959 -17.050  0.00  0.00    +0.000 OA
ATOM     14  C   UNL     1     -12.778 -38.023 -17.831  0.00  0.00    +0.000 C 
ATOM     15  O   UNL     1     -11.753 -37.573 -18.742  0.00  0.00    +0.000 OA
ENDBRANCH   5   7
BRANCH   1  18
ATOM     16  C   UNL     1      -8.303 -32.232 -15.633  0.00  0.00    +0.000 A 
ATOM     17  C   UNL     1      -9.544 -32.215 -16.293  0.00  0.00    +0.000 A 
ATOM     18  C   UNL     1     -10.618 -31.438 -15.831  0.00  0.00    +0.000 A 
ATOM     19  C   UNL     1     -10.487 -30.807 -14.588  0.00  0.00    +0.000 A 
ATOM     20  C   UNL     1      -9.288 -30.869 -13.880  0.00  0.00    +0.000 A 
ATOM     21  C   UNL     1      -8.198 -31.558 -14.412  0.00  0.00    +0.000 A 
BRANCH  16  23
ATOM     22  C   UNL     1      -7.061 -34.398 -15.942  0.00  0.00    +0.000 C 
ATOM     23  C   UNL     1      -7.151 -32.929 -16.313  0.00  0.00    +0.000 C 
ENDBRANCH  16  23
BRANCH  19  24
ATOM     24  O   UNL     1     -11.507 -30.092 -14.018  0.00  0.00    +0.000 OA
ATOM     25  H   UNL     1     -11.133 -29.676 -13.210  0.00  0.00    +0.000 HD
ENDBRANCH  19  24
BRANCH  21  26
ATOM     26  O   UNL     1      -7.048 -31.519 -13.677  0.00  0.00    +0.000 OA
ATOM     27  H   UNL     1      -7.251 -31.267 -12.765  0.00  0.00    +0.000 HD
ENDBRANCH  21  26
ENDBRANCH   1  18
BRANCH   4  28
ATOM     28  C   UNL     1     -14.565 -31.791 -19.025  0.00  0.00    +0.000 C 
ATOM     29  O   UNL     1     -14.622 -31.633 -20.233  0.00  0.00    +0.000 OA
BRANCH  28  30
ATOM     30  O   UNL     1     -15.567 -32.428 -18.379  0.00  0.00    +0.000 OA
ATOM     31  H   UNL     1     -15.167 -33.304 -18.187  0.00  0.00    +0.000 HD
ENDBRANCH  28  30
ENDBRANCH   4  28
TORSDOF 7
ENDMDL
MODEL 3
REMARK VINA RESULT:    -7.504      2.141      6.075
REMARK INTER + INTRA:         -11.130
REMARK INTER:                  -9.575
REMARK INTRA:                  -1.554
REMARK UNBOUND:                -1.213
REMARK  Name = 
REMARK  8 active torsions:
REMARK  status: ('A' for Active; 'I' for Inactive)
REMARK    1  A    between atoms: C_1  and  C_2
REMARK    2  A    between atoms: C_2  and  C_3
REMARK    3  A    between atoms: C_5  and  C_6
REMARK    4  A    between atoms: C_9  and  C_10
REMARK    5  A    between atoms: C_10  and  O_12
REMARK    6  A    between atoms: C_13  and  C_14
REMARK    7  A    between atoms: C_23  and  O_24
REMARK    8  A    between atoms: C_26  and  O_27
REMARK                            x       y       z     vdW  Elec       q    Type
REMARK                         _______ _______ _______ _____ _____    ______ ____
ROOT
ATOM      1  C   UNL     1     -11.187 -31.401 -17.975  0.00  0.00    +0.000 A 
ATOM      2  N   UNL     1     -11.350 -30.187 -18.530  0.00  0.00    +0.000 NA
ATOM      3  N   UNL     1     -12.106 -30.422 -19.612  0.00  0.00    +0.000 N 
ATOM      4  C   UNL     1     -12.371 -31.740 -19.854  0.00  0.00    +0.000 A 
ATOM      5  C   UNL     1     -11.765 -32.430 -18.811  0.00  0.00    +0.000 A 
ATOM      6  H   UNL     1     -12.404 -29.634 -20.181  0.00  0.00    +0.000 HD
ENDROOT
BRANCH   5   7
ATOM      7  C   UNL     1     -11.774 -33.886 -18.639  0.00  0.00    +0.000 A 
ATOM      8  C   UNL     1     -10.905 -34.718 -19.380  0.00  0.00    +0.000 A 
ATOM      9  C   UNL     1     -10.966 -36.113 -19.280  0.00  0.00    +0.000 A 
ATOM     10  C   UNL     1     -11.948 -36.654 -18.483  0.00  0.00    +0.000 A 
ATOM     11  C   UNL     1     -12.808 -35.861 -17.766  0.00  0.00    +0.000 A 
ATOM     12  C   UNL     1     -12.721 -34.484 -17.788  0.00  0.00    +0.000 A 
ATOM     13  O   UNL     1     -13.739 -36.584 -17.088  0.00  0.00    +0.000 OA
ATOM     14  C   UNL     1     -13.361 -37.925 -17.460  0.00  0.00    +0.000 C 
ATOM     15  O   UNL     1     -12.204 -37.979 -18.321  0.00  0.00    +0.000 OA
ENDBRANCH   5   7
BRANCH   1  18
ATOM     16  C   UNL     1      -8.397 -32.290 -15.576  0.00  0.00    +0.000 A 
ATOM     17  C   UNL     1      -9.283 -32.334 -16.668  0.00  0.00    +0.000 A 
ATOM     18  C   UNL     1     -10.442 -31.543 -16.714  0.00  0.00    +0.000 A 
ATOM     19  C   UNL     1     -10.796 -30.828 -15.563  0.00  0.00    +0.000 A 
ATOM     20  C   UNL     1      -9.969 -30.826 -14.442  0.00  0.00    +0.000 A 
ATOM     21  C   UNL     1      -8.767 -31.534 -14.459  0.00  0.00    +0.000 A 
BRANCH  16  23
ATOM     22  C   UNL     1      -7.242 -34.408 -16.289  0.00  0.00    +0.000 C 
ATOM     23  C   UNL     1      -7.081 -33.016 -15.706  0.00  0.00    +0.000 C 
ENDBRANCH  16  23
BRANCH  19  24
ATOM     24  O   UNL     1     -11.948 -30.090 -15.485  0.00  0.00    +0.000 OA
ATOM     25  H   UNL     1     -12.684 -30.710 -15.684  0.00  0.00    +0.000 HD
ENDBRANCH  19  24
BRANCH  21  26
ATOM     26  O   UNL     1      -7.994 -31.431 -13.339  0.00  0.00    +0.000 OA
ATOM     27  H   UNL     1      -7.103 -31.762 -13.525  0.00  0.00    +0.000 HD
ENDBRANCH  21  26
ENDBRANCH   1  18
BRANCH   4  28
ATOM     28  C   UNL     1     -13.123 -32.173 -20.993  0.00  0.00    +0.000 C 
ATOM     29  O   UNL     1     -14.320 -32.382 -21.099  0.00  0.00    +0.000 OA
BRANCH  28  30
ATOM     30  O   UNL     1     -12.320 -32.293 -22.073  0.00  0.00    +0.000 OA
ATOM     31  H   UNL     1     -11.765 -31.485 -22.012  0.00  0.00    +0.000 HD
ENDBRANCH  28  30
ENDBRANCH   4  28
TORSDOF 7
ENDMDL
MODEL 4
REMARK VINA RESULT:    -7.438      2.316      7.071
REMARK INTER + INTRA:         -11.042
REMARK INTER:                  -9.511
REMARK INTRA:                  -1.532
REMARK UNBOUND:                -1.213
REMARK  Name = 
REMARK  8 active torsions:
REMARK  status: ('A' for Active; 'I' for Inactive)
REMARK    1  A    between atoms: C_1  and  C_2
REMARK    2  A    between atoms: C_2  and  C_3
REMARK    3  A    between atoms: C_5  and  C_6
REMARK    4  A    between atoms: C_9  and  C_10
REMARK    5  A    between atoms: C_10  and  O_12
REMARK    6  A    between atoms: C_13  and  C_14
REMARK    7  A    between atoms: C_23  and  O_24
REMARK    8  A    between atoms: C_26  and  O_27
REMARK                            x       y       z     vdW  Elec       q    Type
REMARK                         _______ _______ _______ _____ _____    ______ ____
ROOT
ATOM      1  C   UNL     1     -10.254 -33.928 -17.496  0.00  0.00    +0.000 A 
ATOM      2  N   UNL     1     -10.150 -35.268 -17.569  0.00  0.00    +0.000 NA
ATOM      3  N   UNL     1     -11.064 -35.616 -18.487  0.00  0.00    +0.000 N 
ATOM      4  C   UNL     1     -11.831 -34.586 -18.954  0.00  0.00    +0.000 A 
ATOM      5  C   UNL     1     -11.350 -33.452 -18.311  0.00  0.00    +0.000 A 
ATOM      6  H   UNL     1     -11.143 -36.593 -18.752  0.00  0.00    +0.000 HD
ENDROOT
BRANCH   5   7
ATOM      7  C   UNL     1     -11.867 -32.093 -18.489  0.00  0.00    +0.000 A 
ATOM      8  C   UNL     1     -11.314 -31.218 -19.453  0.00  0.00    +0.000 A 
ATOM      9  C   UNL     1     -11.749 -29.892 -19.571  0.00  0.00    +0.000 A 
ATOM     10  C   UNL     1     -12.689 -29.446 -18.673  0.00  0.00    +0.000 A 
ATOM     11  C   UNL     1     -13.227 -30.277 -17.724  0.00  0.00    +0.000 A 
ATOM     12  C   UNL     1     -12.872 -31.608 -17.633  0.00  0.00    +0.000 A 
ATOM     13  O   UNL     1     -14.094 -29.632 -16.898  0.00  0.00    +0.000 OA
ATOM     14  C   UNL     1     -14.041 -28.298 -17.442  0.00  0.00    +0.000 C 
ATOM     15  O   UNL     1     -13.174 -28.179 -18.589  0.00  0.00    +0.000 OA
ENDBRANCH   5   7
BRANCH   1  18
ATOM     16  C   UNL     1      -9.106 -31.429 -14.896  0.00  0.00    +0.000 A 
ATOM     17  C   UNL     1      -9.831 -32.029 -15.940  0.00  0.00    +0.000 A 
ATOM     18  C   UNL     1      -9.356 -33.165 -16.615  0.00  0.00    +0.000 A 
ATOM     19  C   UNL     1      -8.050 -33.593 -16.343  0.00  0.00    +0.000 A 
ATOM     20  C   UNL     1      -7.285 -32.968 -15.361  0.00  0.00    +0.000 A 
ATOM     21  C   UNL     1      -7.820 -31.908 -14.628  0.00  0.00    +0.000 A 
BRANCH  16  23
ATOM     22  C   UNL     1     -11.248 -30.180 -14.471  0.00  0.00    +0.000 C 
ATOM     23  C   UNL     1      -9.786 -30.345 -14.097  0.00  0.00    +0.000 C 
ENDBRANCH  16  23
BRANCH  19  24
ATOM     24  O   UNL     1      -7.471 -34.643 -17.006  0.00  0.00    +0.000 OA
ATOM     25  H   UNL     1      -7.089 -35.227 -16.313  0.00  0.00    +0.000 HD
ENDBRANCH  19  24
BRANCH  21  26
ATOM     26  O   UNL     1      -7.021 -31.393 -13.649  0.00  0.00    +0.000 OA
ATOM     27  H   UNL     1      -7.002 -30.427 -13.716  0.00  0.00    +0.000 HD
ENDBRANCH  21  26
ENDBRANCH   1  18
BRANCH   4  28
ATOM     28  C   UNL     1     -12.886 -34.788 -19.902  0.00  0.00    +0.000 C 
ATOM     29  O   UNL     1     -14.037 -35.146 -19.718  0.00  0.00    +0.000 OA
BRANCH  28  30
ATOM     30  O   UNL     1     -12.472 -34.463 -21.147  0.00  0.00    +0.000 OA
ATOM     31  H   UNL     1     -12.542 -35.320 -21.620  0.00  0.00    +0.000 HD
ENDBRANCH  28  30
ENDBRANCH   4  28
TORSDOF 7
ENDMDL
MODEL 5
REMARK VINA RESULT:    -7.306      2.373      5.225
REMARK INTER + INTRA:         -10.868
REMARK INTER:                  -9.095
REMARK INTRA:                  -1.773
REMARK UNBOUND:                -1.213
REMARK  Name = 
REMARK  8 active torsions:
REMARK  status: ('A' for Active; 'I' for Inactive)
REMARK    1  A    between atoms: C_1  and  C_2
REMARK    2  A    between atoms: C_2  and  C_3
REMARK    3  A    between atoms: C_5  and  C_6
REMARK    4  A    between atoms: C_9  and  C_10
REMARK    5  A    between atoms: C_10  and  O_12
REMARK    6  A    between atoms: C_13  and  C_14
REMARK    7  A    between atoms: C_23  and  O_24
REMARK    8  A    between atoms: C_26  and  O_27
REMARK                            x       y       z     vdW  Elec       q    Type
REMARK                         _______ _______ _______ _____ _____    ______ ____
ROOT
ATOM      1  C   UNL     1      -9.083 -32.511 -16.010  0.00  0.00    +0.000 A 
ATOM      2  N   UNL     1      -7.929 -32.150 -15.420  0.00  0.00    +0.000 NA
ATOM      3  N   UNL     1      -7.090 -33.159 -15.701  0.00  0.00    +0.000 N 
ATOM      4  C   UNL     1      -7.657 -34.211 -16.363  0.00  0.00    +0.000 A 
ATOM      5  C   UNL     1      -8.980 -33.841 -16.570  0.00  0.00    +0.000 A 
ATOM      6  H   UNL     1      -6.125 -33.092 -15.393  0.00  0.00    +0.000 HD
ENDROOT
BRANCH   5   7
ATOM      7  C   UNL     1      -9.993 -34.656 -17.245  0.00  0.00    +0.000 A 
ATOM      8  C   UNL     1     -10.052 -34.735 -18.656  0.00  0.00    +0.000 A 
ATOM      9  C   UNL     1     -11.067 -35.447 -19.307  0.00  0.00    +0.000 A 
ATOM     10  C   UNL     1     -12.048 -36.015 -18.529  0.00  0.00    +0.000 A 
ATOM     11  C   UNL     1     -12.014 -35.937 -17.160  0.00  0.00    +0.000 A 
ATOM     12  C   UNL     1     -10.986 -35.307 -16.490  0.00  0.00    +0.000 A 
ATOM     13  O   UNL     1     -13.102 -36.511 -16.580  0.00  0.00    +0.000 OA
ATOM     14  C   UNL     1     -13.823 -36.962 -17.744  0.00  0.00    +0.000 C 
ATOM     15  O   UNL     1     -13.144 -36.677 -18.986  0.00  0.00    +0.000 OA
ENDBRANCH   5   7
BRANCH   1  18
ATOM     16  C   UNL     1     -12.378 -30.913 -16.965  0.00  0.00    +0.000 A 
ATOM     17  C   UNL     1     -11.124 -31.542 -17.058  0.00  0.00    +0.000 A 
ATOM     18  C   UNL     1     -10.247 -31.613 -15.964  0.00  0.00    +0.000 A 
ATOM     19  C   UNL     1     -10.573 -30.885 -14.812  0.00  0.00    +0.000 A 
ATOM     20  C   UNL     1     -11.779 -30.194 -14.723  0.00  0.00    +0.000 A 
ATOM     21  C   UNL     1     -12.684 -30.228 -15.785  0.00  0.00    +0.000 A 
BRANCH  16  23
ATOM     22  C   UNL     1     -13.366 -32.484 -18.663  0.00  0.00    +0.000 C 
ATOM     23  C   UNL     1     -13.332 -31.066 -18.123  0.00  0.00    +0.000 C 
ENDBRANCH  16  23
BRANCH  19  24
ATOM     24  O   UNL     1      -9.744 -30.829 -13.723  0.00  0.00    +0.000 OA
ATOM     25  H   UNL     1     -10.326 -30.691 -12.943  0.00  0.00    +0.000 HD
ENDBRANCH  19  24
BRANCH  21  26
ATOM     26  O   UNL     1     -13.864 -29.570 -15.588  0.00  0.00    +0.000 OA
ATOM     27  H   UNL     1     -13.830 -28.703 -16.019  0.00  0.00    +0.000 HD
ENDBRANCH  21  26
ENDBRANCH   1  18
BRANCH   4  28
ATOM     28  C   UNL     1      -6.918 -35.391 -16.699  0.00  0.00    +0.000 C 
ATOM     29  O   UNL     1      -5.947 -35.517 -17.426  0.00  0.00    +0.000 OA
BRANCH  28  30
ATOM     30  O   UNL     1      -7.405 -36.461 -16.032  0.00  0.00    +0.000 OA
ATOM     31  H   UNL     1      -7.986 -36.041 -15.361  0.00  0.00    +0.000 HD
ENDBRANCH  28  30
ENDBRANCH   4  28
TORSDOF 7
ENDMDL
