MODEL 1
REMARK VINA RESULT:    -8.942      0.000      0.000
REMARK INTER + INTRA:         -12.886
REMARK INTER:                 -11.033
REMARK INTRA:                  -1.853
REMARK UNBOUND:                -1.853
REMARK  Name = 
REMARK  7 active torsions:
REMARK  status: ('A' for Active; 'I' for Inactive)
REMARK    1  A    between atoms: C_1  and  N_2
REMARK    2  A    between atoms: N_5  and  C_6
REMARK    3  A    between atoms: C_9  and  C_10
REMARK    4  A    between atoms: C_10  and  C_11
REMARK    5  A    between atoms: C_10  and  C_12
REMARK    6  A    between atoms: C_10  and  C_13
REMARK    7  A    between atoms: C_20  and  C_21
REMARK                            x       y       z     vdW  Elec       q    Type
REMARK                         _______ _______ _______ _____ _____    ______ ____
ROOT
ATOM      1  C   UNL     1     -13.849 -29.526 -15.734  0.00  0.00    +0.000 C 
ATOM      2  N   UNL     1     -12.896 -30.512 -16.155  0.00  0.00    +0.000 N 
ATOM      3  C   UNL     1     -13.125 -31.458 -17.168  0.00  0.00    +0.000 A 
ATOM      4  O   UNL     1     -14.136 -31.542 -17.848  0.00  0.00    +0.000 OA
ATOM      5  N   UNL     1     -11.967 -32.290 -17.198  0.00  0.00    +0.000 N 
ATOM      6  C   UNL     1     -11.040 -31.846 -16.220  0.00  0.00    +0.000 A 
ATOM      7  C   UNL     1      -9.727 -32.216 -15.874  0.00  0.00    +0.000 A 
ATOM      8  C   UNL     1      -8.950 -33.253 -16.456  0.00  0.00    +0.000 A 
ATOM      9  C   UNL     1      -7.631 -33.538 -16.047  0.00  0.00    +0.000 A 
ATOM     10  C   UNL     1      -7.089 -32.731 -15.043  0.00  0.00    +0.000 A 
ATOM     11  C   UNL     1      -7.836 -31.706 -14.463  0.00  0.00    +0.000 A 
ATOM     12  C   UNL     1      -9.133 -31.436 -14.851  0.00  0.00    +0.000 A 
ATOM     13  N   UNL     1      -9.741 -30.410 -14.225  0.00  0.00    +0.000 NA
ATOM     14  C   UNL     1     -10.988 -30.071 -14.599  0.00  0.00    +0.000 A 
ATOM     15  C   UNL     1     -11.644 -30.754 -15.586  0.00  0.00    +0.000 A 
ENDROOT
BRANCH   9  16
ATOM     16  C   UNL     1      -6.863 -34.658 -16.629  0.00  0.00    +0.000 A 
ATOM     17  C   UNL     1      -7.319 -35.977 -16.586  0.00  0.00    +0.000 A 
ATOM     18  N   UNL     1      -6.699 -37.044 -17.146  0.00  0.00    +0.000 NA
ATOM     19  C   UNL     1      -5.562 -36.819 -17.819  0.00  0.00    +0.000 A 
ATOM     20  C   UNL     1      -4.930 -37.873 -18.464  0.00  0.00    +0.000 A 
ATOM     21  C   UNL     1      -3.769 -37.679 -19.216  0.00  0.00    +0.000 A 
ATOM     22  C   UNL     1      -3.206 -36.410 -19.308  0.00  0.00    +0.000 A 
ATOM     23  C   UNL     1      -3.807 -35.340 -18.651  0.00  0.00    +0.000 A 
ATOM     24  C   UNL     1      -4.991 -35.536 -17.920  0.00  0.00    +0.000 A 
ATOM     25  C   UNL     1      -5.648 -34.466 -17.297  0.00  0.00    +0.000 A 
ENDBRANCH   9  16
BRANCH   5  26
ATOM     26  C   UNL     1     -11.846 -33.370 -18.083  0.00  0.00    +0.000 A 
ATOM     27  C   UNL     1     -11.906 -34.668 -17.576  0.00  0.00    +0.000 A 
ATOM     28  C   UNL     1     -11.569 -35.768 -18.371  0.00  0.00    +0.000 A 
ATOM     29  C   UNL     1     -11.125 -35.604 -19.696  0.00  0.00    +0.000 A 
ATOM     30  C   UNL     1     -11.098 -34.290 -20.205  0.00  0.00    +0.000 A 
ATOM     31  C   UNL     1     -11.456 -33.184 -19.411  0.00  0.00    +0.000 A 
BRANCH  29  32
ATOM     32  C   UNL     1     -10.552 -36.801 -20.489  0.00  0.00    +0.000 C 
ATOM     33  C   UNL     1     -10.833 -36.718 -22.004  0.00  0.00    +0.000 C 
ATOM     34  C   UNL     1      -9.020 -36.816 -20.284  0.00  0.00    +0.000 C 
BRANCH  32  35
ATOM     35  C   UNL     1     -11.099 -38.109 -20.027  0.00  0.00    +0.000 C 
ATOM     36  N   UNL     1     -11.529 -39.122 -19.660  0.00  0.00    +0.000 NA
ENDBRANCH  32  35
ENDBRANCH  29  32
ENDBRANCH   5  26
TORSDOF 4
ENDMDL
MODEL 2
REMARK VINA RESULT:    -7.338      3.111      5.107
REMARK INTER + INTRA:         -10.906
REMARK INTER:                  -9.053
REMARK INTRA:                  -1.854
REMARK UNBOUND:                -1.853
REMARK  Name = 
REMARK  7 active torsions:
REMARK  status: ('A' for Active; 'I' for Inactive)
REMARK    1  A    between atoms: C_1  and  N_2
REMARK    2  A    between atoms: N_5  and  C_6
REMARK    3  A    between atoms: C_9  and  C_10
REMARK    4  A    between atoms: C_10  and  C_11
REMARK    5  A    between atoms: C_10  and  C_12
REMARK    6  A    between atoms: C_10  and  C_13
REMARK    7  A    between atoms: C_20  and  C_21
REMARK                            x       y       z     vdW  Elec       q    Type
REMARK                         _______ _______ _______ _____ _____    ______ ____
ROOT
ATOM      1  C   UNL     1     -17.574 -27.789 -20.849  0.00  0.00    +0.000 C 
ATOM      2  N   UNL     1     -16.501 -28.672 -20.493  0.00  0.00    +0.000 N 
ATOM      3  C   UNL     1     -15.974 -29.665 -21.336  0.00  0.00    +0.000 A 
ATOM      4  O   UNL     1     -16.324 -29.882 -22.485  0.00  0.00    +0.000 OA
ATOM      5  N   UNL     1     -14.999 -30.360 -20.562  0.00  0.00    +0.000 N 
ATOM      6  C   UNL     1     -14.926 -29.787 -19.266  0.00  0.00    +0.000 A 
ATOM      7  C   UNL     1     -14.100 -29.995 -18.146  0.00  0.00    +0.000 A 
ATOM      8  C   UNL     1     -13.057 -30.952 -18.019  0.00  0.00    +0.000 A 
ATOM      9  C   UNL     1     -12.273 -31.073 -16.855  0.00  0.00    +0.000 A 
ATOM     10  C   UNL     1     -12.541 -30.183 -15.812  0.00  0.00    +0.000 A 
ATOM     11  C   UNL     1     -13.557 -29.234 -15.920  0.00  0.00    +0.000 A 
ATOM     12  C   UNL     1     -14.338 -29.124 -17.054  0.00  0.00    +0.000 A 
ATOM     13  N   UNL     1     -15.276 -28.158 -17.040  0.00  0.00    +0.000 NA
ATOM     14  C   UNL     1     -16.031 -27.973 -18.138  0.00  0.00    +0.000 A 
ATOM     15  C   UNL     1     -15.871 -28.753 -19.249  0.00  0.00    +0.000 A 
ENDROOT
BRANCH   9  16
ATOM     16  C   UNL     1     -11.231 -32.113 -16.726  0.00  0.00    +0.000 A 
ATOM     17  C   UNL     1     -11.461 -33.446 -17.074  0.00  0.00    +0.000 A 
ATOM     18  N   UNL     1     -10.542 -34.441 -17.036  0.00  0.00    +0.000 NA
ATOM     19  C   UNL     1      -9.297 -34.122 -16.656  0.00  0.00    +0.000 A 
ATOM     20  C   UNL     1      -8.309 -35.096 -16.667  0.00  0.00    +0.000 A 
ATOM     21  C   UNL     1      -6.987 -34.800 -16.323  0.00  0.00    +0.000 A 
ATOM     22  C   UNL     1      -6.645 -33.510 -15.931  0.00  0.00    +0.000 A 
ATOM     23  C   UNL     1      -7.623 -32.520 -15.889  0.00  0.00    +0.000 A 
ATOM     24  C   UNL     1      -8.943 -32.816 -16.264  0.00  0.00    +0.000 A 
ATOM     25  C   UNL     1      -9.935 -31.826 -16.285  0.00  0.00    +0.000 A 
ENDBRANCH   9  16
BRANCH   5  26
ATOM     26  C   UNL     1     -14.271 -31.442 -21.074  0.00  0.00    +0.000 A 
ATOM     27  C   UNL     1     -14.594 -32.733 -20.652  0.00  0.00    +0.000 A 
ATOM     28  C   UNL     1     -13.764 -33.817 -20.954  0.00  0.00    +0.000 A 
ATOM     29  C   UNL     1     -12.561 -33.643 -21.661  0.00  0.00    +0.000 A 
ATOM     30  C   UNL     1     -12.263 -32.340 -22.107  0.00  0.00    +0.000 A 
ATOM     31  C   UNL     1     -13.107 -31.251 -21.821  0.00  0.00    +0.000 A 
BRANCH  29  32
ATOM     32  C   UNL     1     -11.552 -34.806 -21.799  0.00  0.00    +0.000 C 
ATOM     33  C   UNL     1     -11.145 -35.423 -20.445  0.00  0.00    +0.000 C 
ATOM     34  C   UNL     1     -12.217 -35.911 -22.651  0.00  0.00    +0.000 C 
BRANCH  32  35
ATOM     35  C   UNL     1     -10.288 -34.391 -22.472  0.00  0.00    +0.000 C 
ATOM     36  N   UNL     1      -9.308 -34.071 -23.005  0.00  0.00    +0.000 NA
ENDBRANCH  32  35
ENDBRANCH  29  32
ENDBRANCH   5  26
TORSDOF 4
ENDMDL
MODEL 3
REMARK VINA RESULT:    -7.021      2.642      7.301
REMARK INTER + INTRA:         -10.516
REMARK INTER:                  -8.651
REMARK INTRA:                  -1.864
REMARK UNBOUND:                -1.853
REMARK  Name = 
REMARK  7 active torsions:
REMARK  status: ('A' for Active; 'I' for Inactive)
REMARK    1  A    between atoms: C_1  and  N_2
REMARK    2  A    between atoms: N_5  and  C_6
REMARK    3  A    between atoms: C_9  and  C_10
REMARK    4  A    between atoms: C_10  and  C_11
REMARK    5  A    between atoms: C_10  and  C_12
REMARK    6  A    between atoms: C_10  and  C_13
REMARK    7  A    between atoms: C_20  and  C_21
REMARK                            x       y       z     vdW  Elec       q    Type
REMARK                         _______ _______ _______ _____ _____    ______ ____
ROOT
ATOM      1  C   UNL     1      -6.586 -40.827 -22.217  0.00  0.00    +0.000 C 
ATOM      2  N   UNL     1      -7.112 -39.713 -21.482  0.00  0.00    +0.000 N 
ATOM      3  C   UNL     1      -8.320 -39.061 -21.782  0.00  0.00    +0.000 A 
ATOM      4  O   UNL     1      -9.096 -39.374 -22.671  0.00  0.00    +0.000 OA
ATOM      5  N   UNL     1      -8.412 -37.968 -20.870  0.00  0.00    +0.000 N 
ATOM      6  C   UNL     1      -7.278 -37.964 -20.018  0.00  0.00    +0.000 A 
ATOM      7  C   UNL     1      -6.893 -37.200 -18.901  0.00  0.00    +0.000 A 
ATOM      8  C   UNL     1      -7.603 -36.114 -18.322  0.00  0.00    +0.000 A 
ATOM      9  C   UNL     1      -7.138 -35.418 -17.188  0.00  0.00    +0.000 A 
ATOM     10  C   UNL     1      -5.940 -35.856 -16.620  0.00  0.00    +0.000 A 
ATOM     11  C   UNL     1      -5.230 -36.923 -17.172  0.00  0.00    +0.000 A 
ATOM     12  C   UNL     1      -5.676 -37.596 -18.292  0.00  0.00    +0.000 A 
ATOM     13  N   UNL     1      -4.909 -38.618 -18.718  0.00  0.00    +0.000 NA
ATOM     14  C   UNL     1      -5.322 -39.341 -19.775  0.00  0.00    +0.000 A 
ATOM     15  C   UNL     1      -6.489 -39.047 -20.424  0.00  0.00    +0.000 A 
ENDROOT
BRANCH   9  16
ATOM     16  C   UNL     1      -7.867 -34.256 -16.638  0.00  0.00    +0.000 A 
ATOM     17  C   UNL     1      -9.209 -34.009 -16.936  0.00  0.00    +0.000 A 
ATOM     18  N   UNL     1      -9.957 -33.000 -16.427  0.00  0.00    +0.000 NA
ATOM     19  C   UNL     1      -9.373 -32.179 -15.544  0.00  0.00    +0.000 A 
ATOM     20  C   UNL     1     -10.121 -31.173 -14.948  0.00  0.00    +0.000 A 
ATOM     21  C   UNL     1      -9.567 -30.322 -13.988  0.00  0.00    +0.000 A 
ATOM     22  C   UNL     1      -8.229 -30.455 -13.631  0.00  0.00    +0.000 A 
ATOM     23  C   UNL     1      -7.451 -31.441 -14.232  0.00  0.00    +0.000 A 
ATOM     24  C   UNL     1      -8.020 -32.312 -15.175  0.00  0.00    +0.000 A 
ATOM     25  C   UNL     1      -7.275 -33.350 -15.752  0.00  0.00    +0.000 A 
ENDBRANCH   9  16
BRANCH   5  26
ATOM     26  C   UNL     1      -9.490 -37.072 -20.886  0.00  0.00    +0.000 A 
ATOM     27  C   UNL     1      -9.427 -35.955 -21.721  0.00  0.00    +0.000 A 
ATOM     28  C   UNL     1     -10.361 -34.921 -21.611  0.00  0.00    +0.000 A 
ATOM     29  C   UNL     1     -11.375 -34.951 -20.637  0.00  0.00    +0.000 A 
ATOM     30  C   UNL     1     -11.445 -36.097 -19.820  0.00  0.00    +0.000 A 
ATOM     31  C   UNL     1     -10.517 -37.148 -19.942  0.00  0.00    +0.000 A 
BRANCH  29  32
ATOM     32  C   UNL     1     -12.263 -33.711 -20.384  0.00  0.00    +0.000 C 
ATOM     33  C   UNL     1     -11.552 -32.379 -20.701  0.00  0.00    +0.000 C 
ATOM     34  C   UNL     1     -13.505 -33.823 -21.297  0.00  0.00    +0.000 C 
BRANCH  32  35
ATOM     35  C   UNL     1     -12.727 -33.618 -18.970  0.00  0.00    +0.000 C 
ATOM     36  N   UNL     1     -13.098 -33.545 -17.873  0.00  0.00    +0.000 NA
ENDBRANCH  32  35
ENDBRANCH  29  32
ENDBRANCH   5  26
TORSDOF 4
ENDMDL
MODEL 4
REMARK VINA RESULT:    -7.021      2.099      5.396
REMARK INTER + INTRA:         -10.515
REMARK INTER:                  -8.627
REMARK INTRA:                  -1.888
REMARK UNBOUND:                -1.853
REMARK  Name = 
REMARK  7 active torsions:
REMARK  status: ('A' for Active; 'I' for Inactive)
REMARK    1  A    between atoms: C_1  and  N_2
REMARK    2  A    between atoms: N_5  and  C_6
REMARK    3  A    between atoms: C_9  and  C_10
REMARK    4  A    between atoms: C_10  and  C_11
REMARK    5  A    between atoms: C_10  and  C_12
REMARK    6  A    between atoms: C_10  and  C_13
REMARK    7  A    between atoms: C_20  and  C_21
REMARK                            x       y       z     vdW  Elec       q    Type
REMARK                         _______ _______ _______ _____ _____    ______ ____
ROOT
ATOM      1  C   UNL     1      -8.933 -30.049 -13.695  0.00  0.00    +0.000 C 
ATOM      2  N   UNL     1      -8.885 -31.180 -14.576  0.00  0.00    +0.000 N 
ATOM      3  C   UNL     1      -7.782 -32.041 -14.705  0.00  0.00    +0.000 A 
ATOM      4  O   UNL     1      -6.745 -31.971 -14.064  0.00  0.00    +0.000 OA
ATOM      5  N   UNL     1      -8.122 -32.961 -15.742  0.00  0.00    +0.000 N 
ATOM      6  C   UNL     1      -9.422 -32.667 -16.229  0.00  0.00    +0.000 A 
ATOM      7  C   UNL     1     -10.284 -33.282 -17.155  0.00  0.00    +0.000 A 
ATOM      8  C   UNL     1     -10.019 -34.443 -17.930  0.00  0.00    +0.000 A 
ATOM      9  C   UNL     1     -10.959 -34.992 -18.825  0.00  0.00    +0.000 A 
ATOM     10  C   UNL     1     -12.202 -34.360 -18.908  0.00  0.00    +0.000 A 
ATOM     11  C   UNL     1     -12.482 -33.223 -18.151  0.00  0.00    +0.000 A 
ATOM     12  C   UNL     1     -11.557 -32.673 -17.286  0.00  0.00    +0.000 A 
ATOM     13  N   UNL     1     -11.954 -31.583 -16.601  0.00  0.00    +0.000 NA
ATOM     14  C   UNL     1     -11.111 -31.037 -15.708  0.00  0.00    +0.000 A 
ATOM     15  C   UNL     1      -9.865 -31.558 -15.497  0.00  0.00    +0.000 A 
ENDROOT
BRANCH   9  16
ATOM     16  C   UNL     1     -10.639 -36.168 -19.661  0.00  0.00    +0.000 A 
ATOM     17  C   UNL     1     -11.483 -37.277 -19.742  0.00  0.00    +0.000 A 
ATOM     18  N   UNL     1     -11.285 -38.363 -20.528  0.00  0.00    +0.000 NA
ATOM     19  C   UNL     1     -10.200 -38.371 -21.314  0.00  0.00    +0.000 A 
ATOM     20  C   UNL     1      -9.993 -39.433 -22.183  0.00  0.00    +0.000 A 
ATOM     21  C   UNL     1      -8.901 -39.463 -23.054  0.00  0.00    +0.000 A 
ATOM     22  C   UNL     1      -7.976 -38.424 -23.042  0.00  0.00    +0.000 A 
ATOM     23  C   UNL     1      -8.147 -37.358 -22.164  0.00  0.00    +0.000 A 
ATOM     24  C   UNL     1      -9.262 -37.319 -21.311  0.00  0.00    +0.000 A 
ATOM     25  C   UNL     1      -9.490 -36.231 -20.457  0.00  0.00    +0.000 A 
ENDBRANCH   9  16
BRANCH   5  26
ATOM     26  C   UNL     1      -7.243 -33.967 -16.164  0.00  0.00    +0.000 A 
ATOM     27  C   UNL     1      -6.192 -33.631 -17.018  0.00  0.00    +0.000 A 
ATOM     28  C   UNL     1      -5.429 -34.621 -17.644  0.00  0.00    +0.000 A 
ATOM     29  C   UNL     1      -5.713 -35.987 -17.464  0.00  0.00    +0.000 A 
ATOM     30  C   UNL     1      -6.757 -36.313 -16.576  0.00  0.00    +0.000 A 
ATOM     31  C   UNL     1      -7.513 -35.317 -15.930  0.00  0.00    +0.000 A 
BRANCH  29  32
ATOM     32  C   UNL     1      -5.006 -37.060 -18.325  0.00  0.00    +0.000 C 
ATOM     33  C   UNL     1      -5.439 -37.035 -19.805  0.00  0.00    +0.000 C 
ATOM     34  C   UNL     1      -3.486 -36.790 -18.264  0.00  0.00    +0.000 C 
BRANCH  32  35
ATOM     35  C   UNL     1      -5.256 -38.445 -17.833  0.00  0.00    +0.000 C 
ATOM     36  N   UNL     1      -5.456 -39.525 -17.458  0.00  0.00    +0.000 NA
ENDBRANCH  32  35
ENDBRANCH  29  32
ENDBRANCH   5  26
TORSDOF 4
ENDMDL
MODEL 5
REMARK VINA RESULT:    -6.882      3.038      6.058
REMARK INTER + INTRA:         -10.344
REMARK INTER:                  -8.778
REMARK INTRA:                  -1.566
REMARK UNBOUND:                -1.853
REMARK  Name = 
REMARK  7 active torsions:
REMARK  status: ('A' for Active; 'I' for Inactive)
REMARK    1  A    between atoms: C_1  and  N_2
REMARK    2  A    between atoms: N_5  and  C_6
REMARK    3  A    between atoms: C_9  and  C_10
REMARK    4  A    between atoms: C_10  and  C_11
REMARK    5  A    between atoms: C_10  and  C_12
REMARK    6  A    between atoms: C_10  and  C_13
REMARK    7  A    between atoms: C_20  and  C_21
REMARK                            x       y       z     vdW  Elec       q    Type
REMARK                         _______ _______ _______ _____ _____    ______ ____
ROOT
ATOM      1  C   UNL     1     -17.553 -35.739 -21.744  0.00  0.00    +0.000 C 
ATOM      2  N   UNL     1     -16.313 -35.428 -21.092  0.00  0.00    +0.000 N 
ATOM      3  C   UNL     1     -15.077 -36.012 -21.414  0.00  0.00    +0.000 A 
ATOM      4  O   UNL     1     -14.882 -36.822 -22.307  0.00  0.00    +0.000 OA
ATOM      5  N   UNL     1     -14.140 -35.492 -20.472  0.00  0.00    +0.000 N 
ATOM      6  C   UNL     1     -14.800 -34.593 -19.595  0.00  0.00    +0.000 A 
ATOM      7  C   UNL     1     -14.371 -33.738 -18.562  0.00  0.00    +0.000 A 
ATOM      8  C   UNL     1     -13.045 -33.582 -18.077  0.00  0.00    +0.000 A 
ATOM      9  C   UNL     1     -12.714 -32.684 -17.042  0.00  0.00    +0.000 A 
ATOM     10  C   UNL     1     -13.752 -31.913 -16.513  0.00  0.00    +0.000 A 
ATOM     11  C   UNL     1     -15.059 -32.049 -16.980  0.00  0.00    +0.000 A 
ATOM     12  C   UNL     1     -15.389 -32.940 -17.982  0.00  0.00    +0.000 A 
ATOM     13  N   UNL     1     -16.683 -32.967 -18.355  0.00  0.00    +0.000 NA
ATOM     14  C   UNL     1     -17.050 -33.779 -19.361  0.00  0.00    +0.000 A 
ATOM     15  C   UNL     1     -16.142 -34.580 -19.995  0.00  0.00    +0.000 A 
ENDROOT
BRANCH   9  16
ATOM     16  C   UNL     1     -11.337 -32.580 -16.517  0.00  0.00    +0.000 A 
ATOM     17  C   UNL     1     -10.270 -33.284 -17.078  0.00  0.00    +0.000 A 
ATOM     18  N   UNL     1      -8.975 -33.197 -16.688  0.00  0.00    +0.000 NA
ATOM     19  C   UNL     1      -8.682 -32.347 -15.694  0.00  0.00    +0.000 A 
ATOM     20  C   UNL     1      -7.359 -32.177 -15.308  0.00  0.00    +0.000 A 
ATOM     21  C   UNL     1      -7.001 -31.268 -14.309  0.00  0.00    +0.000 A 
ATOM     22  C   UNL     1      -7.984 -30.530 -13.658  0.00  0.00    +0.000 A 
ATOM     23  C   UNL     1      -9.320 -30.699 -14.010  0.00  0.00    +0.000 A 
ATOM     24  C   UNL     1      -9.672 -31.592 -15.035  0.00  0.00    +0.000 A 
ATOM     25  C   UNL     1     -11.003 -31.739 -15.449  0.00  0.00    +0.000 A 
ENDBRANCH   9  16
BRANCH   5  26
ATOM     26  C   UNL     1     -12.791 -35.871 -20.474  0.00  0.00    +0.000 A 
ATOM     27  C   UNL     1     -11.907 -35.214 -21.331  0.00  0.00    +0.000 A 
ATOM     28  C   UNL     1     -10.611 -35.697 -21.536  0.00  0.00    +0.000 A 
ATOM     29  C   UNL     1     -10.163 -36.878 -20.916  0.00  0.00    +0.000 A 
ATOM     30  C   UNL     1     -11.055 -37.514 -20.031  0.00  0.00    +0.000 A 
ATOM     31  C   UNL     1     -12.354 -37.018 -19.808  0.00  0.00    +0.000 A 
BRANCH  29  32
ATOM     32  C   UNL     1      -8.813 -37.516 -21.318  0.00  0.00    +0.000 C 
ATOM     33  C   UNL     1      -8.942 -38.991 -21.751  0.00  0.00    +0.000 C 
ATOM     34  C   UNL     1      -8.245 -36.712 -22.508  0.00  0.00    +0.000 C 
BRANCH  32  35
ATOM     35  C   UNL     1      -7.814 -37.485 -20.211  0.00  0.00    +0.000 C 
ATOM     36  N   UNL     1      -7.040 -37.453 -19.347  0.00  0.00    +0.000 NA
ENDBRANCH  32  35
ENDBRANCH  29  32
ENDBRANCH   5  26
TORSDOF 4
ENDMDL
