MODEL 1
REMARK VINA RESULT:    -8.420      0.000      0.000
REMARK INTER + INTRA:         -11.147
REMARK INTER:                 -10.636
REMARK INTRA:                  -0.511
REMARK UNBOUND:                -0.511
REMARK  Name = 
REMARK  6 active torsions:
REMARK  status: ('A' for Active; 'I' for Inactive)
REMARK    1  A    between atoms: C_2  and  C_14
REMARK    2  A    between atoms: N_3  and  N_4
REMARK    3  A    between atoms: C_5  and  C_6
REMARK    4  A    between atoms: C_9  and  O_10
REMARK    5  A    between atoms: C_11  and  O_12
REMARK    6  A    between atoms: C_23  and  O_24
REMARK                            x       y       z     vdW  Elec       q    Type
REMARK                         _______ _______ _______ _____ _____    ______ ____
ROOT
ATOM      1  O   UNL     1      -6.960 -36.427 -16.285  0.00  0.00    +0.000 OA
ATOM      2  C   UNL     1      -6.716 -35.331 -16.787  0.00  0.00    +0.000 C 
ATOM      3  N   UNL     1      -5.636 -35.020 -17.610  0.00  0.00    +0.000 N 
ATOM      4  H   UNL     1      -5.369 -34.042 -17.687  0.00  0.00    +0.000 HD
ENDROOT
BRANCH   2   5
ATOM      5  C   UNL     1      -7.585 -34.186 -16.407  0.00  0.00    +0.000 A 
ATOM      6  C   UNL     1      -7.121 -33.172 -15.557  0.00  0.00    +0.000 A 
ATOM      7  C   UNL     1      -7.998 -32.177 -15.091  0.00  0.00    +0.000 A 
ATOM      8  C   UNL     1      -7.571 -31.200 -14.178  0.00  0.00    +0.000 A 
ATOM      9  C   UNL     1      -8.469 -30.257 -13.674  0.00  0.00    +0.000 A 
ATOM     10  C   UNL     1      -9.795 -30.264 -14.093  0.00  0.00    +0.000 A 
ATOM     11  C   UNL     1     -10.229 -31.210 -15.023  0.00  0.00    +0.000 A 
ATOM     12  C   UNL     1      -9.345 -32.177 -15.525  0.00  0.00    +0.000 A 
ATOM     13  C   UNL     1      -9.777 -33.151 -16.437  0.00  0.00    +0.000 A 
ATOM     14  C   UNL     1      -8.903 -34.143 -16.874  0.00  0.00    +0.000 A 
BRANCH  14  15
ATOM     15  O   UNL     1      -9.420 -35.066 -17.746  0.00  0.00    +0.000 OA
ATOM     16  H   UNL     1     -10.399 -35.053 -17.656  0.00  0.00    +0.000 HD
ENDBRANCH  14  15
ENDBRANCH   2   5
BRANCH   3  17
ATOM     17  N   UNL     1      -4.603 -35.876 -17.906  0.00  0.00    +0.000 NA
ATOM     18  C   UNL     1      -3.578 -35.381 -18.529  0.00  0.00    +0.000 C 
BRANCH  18  19
ATOM     19  C   UNL     1      -2.431 -36.209 -18.949  0.00  0.00    +0.000 A 
ATOM     20  C   UNL     1      -2.121 -36.420 -20.300  0.00  0.00    +0.000 A 
ATOM     21  C   UNL     1      -1.047 -37.245 -20.652  0.00  0.00    +0.000 A 
ATOM     22  C   UNL     1      -0.297 -37.847 -19.647  0.00  0.00    +0.000 A 
ATOM     23  C   UNL     1      -0.599 -37.615 -18.306  0.00  0.00    +0.000 A 
ATOM     24  C   UNL     1      -1.659 -36.800 -17.946  0.00  0.00    +0.000 A 
BRANCH  22  25
ATOM     25  O   UNL     1       0.750 -38.682 -19.922  0.00  0.00    +0.000 OA
ATOM     26  H   UNL     1       1.509 -38.409 -19.375  0.00  0.00    +0.000 HD
ENDBRANCH  22  25
BRANCH  23  27
ATOM     27  O   UNL     1       0.146 -38.202 -17.326  0.00  0.00    +0.000 OA
ATOM     28  H   UNL     1       0.714 -38.843 -17.797  0.00  0.00    +0.000 HD
ENDBRANCH  23  27
ENDBRANCH  18  19
ENDBRANCH   3  17
TORSDOF 6
ENDMDL
MODEL 2
REMARK VINA RESULT:    -8.154      2.435      9.439
REMARK INTER + INTRA:         -10.810
REMARK INTER:                 -10.221
REMARK INTRA:                  -0.589
REMARK UNBOUND:                -0.511
REMARK  Name = 
REMARK  6 active torsions:
REMARK  status: ('A' for Active; 'I' for Inactive)
REMARK    1  A    between atoms: C_2  and  C_14
REMARK    2  A    between atoms: N_3  and  N_4
REMARK    3  A    between atoms: C_5  and  C_6
REMARK    4  A    between atoms: C_9  and  O_10
REMARK    5  A    between atoms: C_11  and  O_12
REMARK    6  A    between atoms: C_23  and  O_24
REMARK                            x       y       z     vdW  Elec       q    Type
REMARK                         _______ _______ _______ _____ _____    ______ ____
ROOT
ATOM      1  O   UNL     1      -7.087 -36.787 -18.150  0.00  0.00    +0.000 OA
ATOM      2  C   UNL     1      -6.050 -36.406 -17.608  0.00  0.00    +0.000 C 
ATOM      3  N   UNL     1      -5.944 -35.436 -16.615  0.00  0.00    +0.000 N 
ATOM      4  H   UNL     1      -5.041 -34.987 -16.490  0.00  0.00    +0.000 HD
ENDROOT
BRANCH   2   5
ATOM      5  C   UNL     1      -4.763 -36.944 -18.121  0.00  0.00    +0.000 A 
ATOM      6  C   UNL     1      -4.524 -38.324 -18.184  0.00  0.00    +0.000 A 
ATOM      7  C   UNL     1      -3.253 -38.812 -18.532  0.00  0.00    +0.000 A 
ATOM      8  C   UNL     1      -2.973 -40.188 -18.524  0.00  0.00    +0.000 A 
ATOM      9  C   UNL     1      -1.688 -40.654 -18.808  0.00  0.00    +0.000 A 
ATOM     10  C   UNL     1      -0.675 -39.756 -19.127  0.00  0.00    +0.000 A 
ATOM     11  C   UNL     1      -0.943 -38.387 -19.168  0.00  0.00    +0.000 A 
ATOM     12  C   UNL     1      -2.224 -37.899 -18.866  0.00  0.00    +0.000 A 
ATOM     13  C   UNL     1      -2.497 -36.524 -18.875  0.00  0.00    +0.000 A 
ATOM     14  C   UNL     1      -3.755 -36.053 -18.508  0.00  0.00    +0.000 A 
BRANCH  14  15
ATOM     15  O   UNL     1      -3.923 -34.693 -18.524  0.00  0.00    +0.000 OA
ATOM     16  H   UNL     1      -3.128 -34.284 -18.113  0.00  0.00    +0.000 HD
ENDBRANCH  14  15
ENDBRANCH   2   5
BRANCH   3  17
ATOM     17  N   UNL     1      -6.986 -34.666 -16.156  0.00  0.00    +0.000 NA
ATOM     18  C   UNL     1      -6.758 -33.401 -15.974  0.00  0.00    +0.000 C 
BRANCH  18  19
ATOM     19  C   UNL     1      -7.778 -32.482 -15.435  0.00  0.00    +0.000 A 
ATOM     20  C   UNL     1      -7.602 -31.807 -14.218  0.00  0.00    +0.000 A 
ATOM     21  C   UNL     1      -8.614 -30.975 -13.726  0.00  0.00    +0.000 A 
ATOM     22  C   UNL     1      -9.788 -30.829 -14.458  0.00  0.00    +0.000 A 
ATOM     23  C   UNL     1      -9.945 -31.488 -15.677  0.00  0.00    +0.000 A 
ATOM     24  C   UNL     1      -8.951 -32.313 -16.175  0.00  0.00    +0.000 A 
BRANCH  22  25
ATOM     25  O   UNL     1     -10.825 -30.052 -14.024  0.00  0.00    +0.000 OA
ATOM     26  H   UNL     1     -11.131 -30.403 -13.168  0.00  0.00    +0.000 HD
ENDBRANCH  22  25
BRANCH  23  27
ATOM     27  O   UNL     1     -11.096 -31.334 -16.394  0.00  0.00    +0.000 OA
ATOM     28  H   UNL     1     -10.864 -31.620 -17.299  0.00  0.00    +0.000 HD
ENDBRANCH  23  27
ENDBRANCH  18  19
ENDBRANCH   3  17
TORSDOF 6
ENDMDL
MODEL 3
REMARK VINA RESULT:    -8.060      2.432      9.160
REMARK INTER + INTRA:         -10.692
REMARK INTER:                 -10.143
REMARK INTRA:                  -0.549
REMARK UNBOUND:                -0.511
REMARK  Name = 
REMARK  6 active torsions:
REMARK  status: ('A' for Active; 'I' for Inactive)
REMARK    1  A    between atoms: C_2  and  C_14
REMARK    2  A    between atoms: N_3  and  N_4
REMARK    3  A    between atoms: C_5  and  C_6
REMARK    4  A    between atoms: C_9  and  O_10
REMARK    5  A    between atoms: C_11  and  O_12
REMARK    6  A    between atoms: C_23  and  O_24
REMARK                            x       y       z     vdW  Elec       q    Type
REMARK                         _______ _______ _______ _____ _____    ______ ____
ROOT
ATOM      1  O   UNL     1      -6.910 -36.811 -18.505  0.00  0.00    +0.000 OA
ATOM      2  C   UNL     1      -6.017 -36.452 -17.738  0.00  0.00    +0.000 C 
ATOM      3  N   UNL     1      -6.144 -35.552 -16.684  0.00  0.00    +0.000 N 
ATOM      4  H   UNL     1      -5.299 -35.099 -16.347  0.00  0.00    +0.000 HD
ENDROOT
BRANCH   2   5
ATOM      5  C   UNL     1      -4.636 -36.932 -18.010  0.00  0.00    +0.000 A 
ATOM      6  C   UNL     1      -3.560 -36.038 -18.103  0.00  0.00    +0.000 A 
ATOM      7  C   UNL     1      -2.291 -36.490 -18.505  0.00  0.00    +0.000 A 
ATOM      8  C   UNL     1      -1.222 -35.597 -18.680  0.00  0.00    +0.000 A 
ATOM      9  C   UNL     1       0.015 -36.051 -19.142  0.00  0.00    +0.000 A 
ATOM     10  C   UNL     1       0.206 -37.402 -19.410  0.00  0.00    +0.000 A 
ATOM     11  C   UNL     1      -0.838 -38.308 -19.214  0.00  0.00    +0.000 A 
ATOM     12  C   UNL     1      -2.093 -37.866 -18.768  0.00  0.00    +0.000 A 
ATOM     13  C   UNL     1      -3.158 -38.762 -18.596  0.00  0.00    +0.000 A 
ATOM     14  C   UNL     1      -4.416 -38.298 -18.218  0.00  0.00    +0.000 A 
BRANCH  14  15
ATOM     15  O   UNL     1      -5.400 -39.243 -18.097  0.00  0.00    +0.000 OA
ATOM     16  H   UNL     1      -6.058 -39.090 -18.813  0.00  0.00    +0.000 HD
ENDBRANCH  14  15
ENDBRANCH   2   5
BRANCH   3  17
ATOM     17  N   UNL     1      -7.279 -34.832 -16.399  0.00  0.00    +0.000 NA
ATOM     18  C   UNL     1      -7.146 -33.555 -16.212  0.00  0.00    +0.000 C 
BRANCH  18  19
ATOM     19  C   UNL     1      -8.280 -32.684 -15.848  0.00  0.00    +0.000 A 
ATOM     20  C   UNL     1      -9.444 -32.614 -16.626  0.00  0.00    +0.000 A 
ATOM     21  C   UNL     1     -10.478 -31.744 -16.262  0.00  0.00    +0.000 A 
ATOM     22  C   UNL     1     -10.333 -30.956 -15.125  0.00  0.00    +0.000 A 
ATOM     23  C   UNL     1      -9.180 -31.048 -14.346  0.00  0.00    +0.000 A 
ATOM     24  C   UNL     1      -8.151 -31.906 -14.695  0.00  0.00    +0.000 A 
BRANCH  22  25
ATOM     25  O   UNL     1     -11.294 -30.069 -14.728  0.00  0.00    +0.000 OA
ATOM     26  H   UNL     1     -11.555 -30.292 -13.815  0.00  0.00    +0.000 HD
ENDBRANCH  22  25
BRANCH  23  27
ATOM     27  O   UNL     1      -9.049 -30.278 -13.228  0.00  0.00    +0.000 OA
ATOM     28  H   UNL     1      -8.223 -30.590 -12.808  0.00  0.00    +0.000 HD
ENDBRANCH  23  27
ENDBRANCH  18  19
ENDBRANCH   3  17
TORSDOF 6
ENDMDL
MODEL 4
REMARK VINA RESULT:    -7.597      2.587      3.569
REMARK INTER + INTRA:         -10.107
REMARK INTER:                  -9.561
REMARK INTRA:                  -0.546
REMARK UNBOUND:                -0.511
REMARK  Name = 
REMARK  6 active torsions:
REMARK  status: ('A' for Active; 'I' for Inactive)
REMARK    1  A    between atoms: C_2  and  C_14
REMARK    2  A    between atoms: N_3  and  N_4
REMARK    3  A    between atoms: C_5  and  C_6
REMARK    4  A    between atoms: C_9  and  O_10
REMARK    5  A    between atoms: C_11  and  O_12
REMARK    6  A    between atoms: C_23  and  O_24
REMARK                            x       y       z     vdW  Elec       q    Type
REMARK                         _______ _______ _______ _____ _____    ______ ____
ROOT
ATOM      1  O   UNL     1      -6.149 -32.208 -16.276  0.00  0.00    +0.000 OA
ATOM      2  C   UNL     1      -7.096 -32.938 -15.987  0.00  0.00    +0.000 C 
ATOM      3  N   UNL     1      -7.117 -34.329 -16.049  0.00  0.00    +0.000 N 
ATOM      4  H   UNL     1      -8.025 -34.784 -16.105  0.00  0.00    +0.000 HD
ENDROOT
BRANCH   2   5
ATOM      5  C   UNL     1      -8.388 -32.290 -15.638  0.00  0.00    +0.000 A 
ATOM      6  C   UNL     1      -9.504 -32.392 -16.482  0.00  0.00    +0.000 A 
ATOM      7  C   UNL     1     -10.670 -31.655 -16.212  0.00  0.00    +0.000 A 
ATOM      8  C   UNL     1     -11.768 -31.682 -17.086  0.00  0.00    +0.000 A 
ATOM      9  C   UNL     1     -12.894 -30.895 -16.839  0.00  0.00    +0.000 A 
ATOM     10  C   UNL     1     -12.947 -30.091 -15.705  0.00  0.00    +0.000 A 
ATOM     11  C   UNL     1     -11.877 -30.074 -14.810  0.00  0.00    +0.000 A 
ATOM     12  C   UNL     1     -10.729 -30.845 -15.053  0.00  0.00    +0.000 A 
ATOM     13  C   UNL     1      -9.635 -30.813 -14.176  0.00  0.00    +0.000 A 
ATOM     14  C   UNL     1      -8.478 -31.531 -14.466  0.00  0.00    +0.000 A 
BRANCH  14  15
ATOM     15  O   UNL     1      -7.453 -31.421 -13.564  0.00  0.00    +0.000 OA
ATOM     16  H   UNL     1      -6.711 -30.946 -14.004  0.00  0.00    +0.000 HD
ENDBRANCH  14  15
ENDBRANCH   2   5
BRANCH   3  17
ATOM     17  N   UNL     1      -6.103 -35.108 -16.551  0.00  0.00    +0.000 NA
ATOM     18  C   UNL     1      -6.439 -36.187 -17.187  0.00  0.00    +0.000 C 
BRANCH  18  19
ATOM     19  C   UNL     1      -5.441 -37.133 -17.725  0.00  0.00    +0.000 A 
ATOM     20  C   UNL     1      -5.693 -38.509 -17.812  0.00  0.00    +0.000 A 
ATOM     21  C   UNL     1      -4.702 -39.373 -18.292  0.00  0.00    +0.000 A 
ATOM     22  C   UNL     1      -3.474 -38.848 -18.680  0.00  0.00    +0.000 A 
ATOM     23  C   UNL     1      -3.240 -37.475 -18.610  0.00  0.00    +0.000 A 
ATOM     24  C   UNL     1      -4.213 -36.610 -18.137  0.00  0.00    +0.000 A 
BRANCH  22  25
ATOM     25  O   UNL     1      -2.455 -39.637 -19.135  0.00  0.00    +0.000 OA
ATOM     26  H   UNL     1      -1.714 -39.571 -18.506  0.00  0.00    +0.000 HD
ENDBRANCH  22  25
BRANCH  23  27
ATOM     27  O   UNL     1      -2.036 -36.965 -18.999  0.00  0.00    +0.000 OA
ATOM     28  H   UNL     1      -1.830 -36.280 -18.334  0.00  0.00    +0.000 HD
ENDBRANCH  23  27
ENDBRANCH  18  19
ENDBRANCH   3  17
TORSDOF 6
ENDMDL
MODEL 5
REMARK VINA RESULT:    -7.487      6.584      8.710
REMARK INTER + INTRA:          -9.967
REMARK INTER:                  -9.395
REMARK INTRA:                  -0.573
REMARK UNBOUND:                -0.511
REMARK  Name = 
REMARK  6 active torsions:
REMARK  status: ('A' for Active; 'I' for Inactive)
REMARK    1  A    between atoms: C_2  and  C_14
REMARK    2  A    between atoms: N_3  and  N_4
REMARK    3  A    between atoms: C_5  and  C_6
REMARK    4  A    between atoms: C_9  and  O_10
REMARK    5  A    between atoms: C_11  and  O_12
REMARK    6  A    between atoms: C_23  and  O_24
REMARK                            x       y       z     vdW  Elec       q    Type
REMARK                         _______ _______ _______ _____ _____    ______ ____
ROOT
ATOM      1  O   UNL     1     -12.766 -33.454 -17.818  0.00  0.00    +0.000 OA
ATOM      2  C   UNL     1     -11.750 -33.845 -17.245  0.00  0.00    +0.000 C 
ATOM      3  N   UNL     1     -11.271 -35.152 -17.209  0.00  0.00    +0.000 N 
ATOM      4  H   UNL     1     -10.633 -35.399 -16.457  0.00  0.00    +0.000 HD
ENDROOT
BRANCH   2   5
ATOM      5  C   UNL     1     -11.000 -32.863 -16.418  0.00  0.00    +0.000 A 
ATOM      6  C   UNL     1      -9.598 -32.822 -16.430  0.00  0.00    +0.000 A 
ATOM      7  C   UNL     1      -8.903 -31.990 -15.535  0.00  0.00    +0.000 A 
ATOM      8  C   UNL     1      -7.501 -31.993 -15.477  0.00  0.00    +0.000 A 
ATOM      9  C   UNL     1      -6.825 -31.211 -14.539  0.00  0.00    +0.000 A 
ATOM     10  C   UNL     1      -7.540 -30.399 -13.665  0.00  0.00    +0.000 A 
ATOM     11  C   UNL     1      -8.933 -30.361 -13.728  0.00  0.00    +0.000 A 
ATOM     12  C   UNL     1      -9.629 -31.156 -14.652  0.00  0.00    +0.000 A 
ATOM     13  C   UNL     1     -11.031 -31.149 -14.704  0.00  0.00    +0.000 A 
ATOM     14  C   UNL     1     -11.707 -31.993 -15.581  0.00  0.00    +0.000 A 
BRANCH  14  15
ATOM     15  O   UNL     1     -13.076 -31.934 -15.546  0.00  0.00    +0.000 OA
ATOM     16  H   UNL     1     -13.373 -31.341 -16.272  0.00  0.00    +0.000 HD
ENDBRANCH  14  15
ENDBRANCH   2   5
BRANCH   3  17
ATOM     17  N   UNL     1     -11.929 -36.243 -17.724  0.00  0.00    +0.000 NA
ATOM     18  C   UNL     1     -12.727 -36.889 -16.931  0.00  0.00    +0.000 C 
BRANCH  18  19
ATOM     19  C   UNL     1     -13.448 -38.106 -17.350  0.00  0.00    +0.000 A 
ATOM     20  C   UNL     1     -14.774 -38.353 -16.970  0.00  0.00    +0.000 A 
ATOM     21  C   UNL     1     -15.405 -39.541 -17.359  0.00  0.00    +0.000 A 
ATOM     22  C   UNL     1     -14.699 -40.465 -18.123  0.00  0.00    +0.000 A 
ATOM     23  C   UNL     1     -13.386 -40.201 -18.513  0.00  0.00    +0.000 A 
ATOM     24  C   UNL     1     -12.752 -39.029 -18.135  0.00  0.00    +0.000 A 
BRANCH  22  25
ATOM     25  O   UNL     1     -15.246 -41.654 -18.516  0.00  0.00    +0.000 OA
ATOM     26  H   UNL     1     -15.345 -41.638 -19.485  0.00  0.00    +0.000 HD
ENDBRANCH  22  25
BRANCH  23  27
ATOM     27  O   UNL     1     -12.702 -41.108 -19.269  0.00  0.00    +0.000 OA
ATOM     28  H   UNL     1     -13.243 -41.215 -20.076  0.00  0.00    +0.000 HD
ENDBRANCH  23  27
ENDBRANCH  18  19
ENDBRANCH   3  17
TORSDOF 6
ENDMDL
