MODEL 1
REMARK VINA RESULT:    -7.898      0.000      0.000
REMARK INTER + INTRA:         -11.189
REMARK INTER:                 -10.437
REMARK INTRA:                  -0.752
REMARK UNBOUND:                -0.752
REMARK  Name = 
REMARK  6 active torsions:
REMARK  status: ('A' for Active; 'I' for Inactive)
REMARK    1  A    between atoms: C_2  and  C_3
REMARK    2  A    between atoms: C_2  and  C_11
REMARK    3  A    between atoms: C_4  and  O_5
REMARK    4  A    between atoms: C_4  and  C_6
REMARK    5  A    between atoms: C_14  and  C_15
REMARK    6  A    between atoms: C_15  and  C_16
REMARK                            x       y       z     vdW  Elec       q    Type
REMARK                         _______ _______ _______ _____ _____    ______ ____
ROOT
ATOM      1  C   UNL     1     -13.460 -30.867 -16.946  0.00  0.00    +0.000 A 
ATOM      2  C   UNL     1     -13.757 -32.035 -16.269  0.00  0.00    +0.000 A 
ATOM      3  C   UNL     1     -12.711 -32.256 -15.342  0.00  0.00    +0.000 A 
ATOM      4  C   UNL     1     -11.833 -31.202 -15.489  0.00  0.00    +0.000 A 
ATOM      5  O   UNL     1     -12.289 -30.349 -16.454  0.00  0.00    +0.000 OA
ENDROOT
BRANCH   1   7
ATOM      6  O   UNL     1     -14.124 -30.535 -19.193  0.00  0.00    +0.000 OA
ATOM      7  C   UNL     1     -14.176 -30.185 -18.011  0.00  0.00    +0.000 C 
BRANCH   7   8
ATOM      8  C   UNL     1     -15.000 -28.995 -17.655  0.00  0.00    +0.000 C 
ATOM      9  C   UNL     1     -14.472 -27.792 -17.350  0.00  0.00    +0.000 C 
BRANCH   9  10
ATOM     10  C   UNL     1     -15.277 -26.647 -17.001  0.00  0.00    +0.000 A 
ATOM     11  N   UNL     1     -16.176 -26.139 -17.920  0.00  0.00    +0.000 NA
ATOM     12  C   UNL     1     -16.764 -25.164 -17.267  0.00  0.00    +0.000 A 
ATOM     13  N   UNL     1     -16.241 -25.078 -16.018  0.00  0.00    +0.000 N 
ATOM     14  N   UNL     1     -15.291 -26.001 -15.825  0.00  0.00    +0.000 NA
ATOM     15  H   UNL     1     -16.481 -24.447 -15.261  0.00  0.00    +0.000 HD
ENDBRANCH   9  10
BRANCH   9  16
ATOM     16  O   UNL     1     -13.105 -27.549 -17.331  0.00  0.00    +0.000 OA
ATOM     17  H   UNL     1     -12.810 -27.368 -18.247  0.00  0.00    +0.000 HD
ENDBRANCH   9  16
ENDBRANCH   7   8
ENDBRANCH   1   7
BRANCH   4  18
ATOM     18  C   UNL     1     -10.562 -30.835 -14.801  0.00  0.00    +0.000 C 
BRANCH  18  19
ATOM     19  C   UNL     1      -9.392 -31.707 -15.204  0.00  0.00    +0.000 A 
ATOM     20  C   UNL     1      -9.541 -32.659 -16.225  0.00  0.00    +0.000 A 
ATOM     21  C   UNL     1      -8.471 -33.479 -16.590  0.00  0.00    +0.000 A 
ATOM     22  C   UNL     1      -7.253 -33.349 -15.935  0.00  0.00    +0.000 A 
ATOM     23  F   UNL     1      -6.229 -34.140 -16.283  0.00  0.00    +0.000 F 
ATOM     24  C   UNL     1      -7.083 -32.413 -14.922  0.00  0.00    +0.000 A 
ATOM     25  C   UNL     1      -8.152 -31.593 -14.554  0.00  0.00    +0.000 A 
ENDBRANCH  18  19
ENDBRANCH   4  18
TORSDOF 6
ENDMDL
MODEL 2
REMARK VINA RESULT:    -7.792      1.820      2.318
REMARK INTER + INTRA:         -11.050
REMARK INTER:                 -10.225
REMARK INTRA:                  -0.825
REMARK UNBOUND:                -0.752
REMARK  Name = 
REMARK  6 active torsions:
REMARK  status: ('A' for Active; 'I' for Inactive)
REMARK    1  A    between atoms: C_2  and  C_3
REMARK    2  A    between atoms: C_2  and  C_11
REMARK    3  A    between atoms: C_4  and  O_5
REMARK    4  A    between atoms: C_4  and  C_6
REMARK    5  A    between atoms: C_14  and  C_15
REMARK    6  A    between atoms: C_15  and  C_16
REMARK                            x       y       z     vdW  Elec       q    Type
REMARK                         _______ _______ _______ _____ _____    ______ ____
ROOT
ATOM      1  C   UNL     1     -13.366 -30.930 -17.107  0.00  0.00    +0.000 A 
ATOM      2  C   UNL     1     -12.740 -30.469 -18.251  0.00  0.00    +0.000 A 
ATOM      3  C   UNL     1     -11.491 -31.129 -18.336  0.00  0.00    +0.000 A 
ATOM      4  C   UNL     1     -11.423 -31.973 -17.246  0.00  0.00    +0.000 A 
ATOM      5  O   UNL     1     -12.564 -31.864 -16.502  0.00  0.00    +0.000 OA
ENDROOT
BRANCH   1   7
ATOM      6  O   UNL     1     -15.318 -31.357 -15.840  0.00  0.00    +0.000 OA
ATOM      7  C   UNL     1     -14.651 -30.579 -16.528  0.00  0.00    +0.000 C 
BRANCH   7   8
ATOM      8  C   UNL     1     -15.195 -29.217 -16.795  0.00  0.00    +0.000 C 
ATOM      9  C   UNL     1     -15.407 -28.301 -15.827  0.00  0.00    +0.000 C 
BRANCH   9  10
ATOM     10  C   UNL     1     -15.938 -26.987 -16.093  0.00  0.00    +0.000 A 
ATOM     11  N   UNL     1     -17.246 -26.853 -16.520  0.00  0.00    +0.000 NA
ATOM     12  C   UNL     1     -17.408 -25.553 -16.605  0.00  0.00    +0.000 A 
ATOM     13  N   UNL     1     -16.254 -24.931 -16.257  0.00  0.00    +0.000 N 
ATOM     14  N   UNL     1     -15.303 -25.815 -15.935  0.00  0.00    +0.000 NA
ATOM     15  H   UNL     1     -16.048 -23.939 -16.204  0.00  0.00    +0.000 HD
ENDBRANCH   9  10
BRANCH   9  16
ATOM     16  O   UNL     1     -15.145 -28.545 -14.486  0.00  0.00    +0.000 OA
ATOM     17  H   UNL     1     -15.791 -28.042 -13.947  0.00  0.00    +0.000 HD
ENDBRANCH   9  16
ENDBRANCH   7   8
ENDBRANCH   1   7
BRANCH   4  18
ATOM     18  C   UNL     1     -10.395 -32.947 -16.779  0.00  0.00    +0.000 C 
BRANCH  18  19
ATOM     19  C   UNL     1      -9.357 -32.328 -15.868  0.00  0.00    +0.000 A 
ATOM     20  C   UNL     1      -9.737 -31.373 -14.911  0.00  0.00    +0.000 A 
ATOM     21  C   UNL     1      -8.782 -30.784 -14.080  0.00  0.00    +0.000 A 
ATOM     22  C   UNL     1      -7.447 -31.148 -14.204  0.00  0.00    +0.000 A 
ATOM     23  F   UNL     1      -6.531 -30.579 -13.409  0.00  0.00    +0.000 F 
ATOM     24  C   UNL     1      -7.048 -32.092 -15.143  0.00  0.00    +0.000 A 
ATOM     25  C   UNL     1      -8.001 -32.680 -15.977  0.00  0.00    +0.000 A 
ENDBRANCH  18  19
ENDBRANCH   4  18
TORSDOF 6
ENDMDL
MODEL 3
REMARK VINA RESULT:    -7.624      8.258     11.281
REMARK INTER + INTRA:         -10.827
REMARK INTER:                  -9.964
REMARK INTRA:                  -0.863
REMARK UNBOUND:                -0.752
REMARK  Name = 
REMARK  6 active torsions:
REMARK  status: ('A' for Active; 'I' for Inactive)
REMARK    1  A    between atoms: C_2  and  C_3
REMARK    2  A    between atoms: C_2  and  C_11
REMARK    3  A    between atoms: C_4  and  O_5
REMARK    4  A    between atoms: C_4  and  C_6
REMARK    5  A    between atoms: C_14  and  C_15
REMARK    6  A    between atoms: C_15  and  C_16
REMARK                            x       y       z     vdW  Elec       q    Type
REMARK                         _______ _______ _______ _____ _____    ______ ____
ROOT
ATOM      1  C   UNL     1      -5.827 -35.747 -17.342  0.00  0.00    +0.000 A 
ATOM      2  C   UNL     1      -6.695 -36.072 -16.315  0.00  0.00    +0.000 A 
ATOM      3  C   UNL     1      -7.098 -34.857 -15.712  0.00  0.00    +0.000 A 
ATOM      4  C   UNL     1      -6.469 -33.848 -16.411  0.00  0.00    +0.000 A 
ATOM      5  O   UNL     1      -5.704 -34.383 -17.410  0.00  0.00    +0.000 OA
ENDROOT
BRANCH   1   7
ATOM      6  O   UNL     1      -5.651 -37.464 -18.960  0.00  0.00    +0.000 OA
ATOM      7  C   UNL     1      -5.105 -36.598 -18.272  0.00  0.00    +0.000 C 
BRANCH   7   8
ATOM      8  C   UNL     1      -3.629 -36.422 -18.386  0.00  0.00    +0.000 C 
ATOM      9  C   UNL     1      -3.015 -36.031 -19.522  0.00  0.00    +0.000 C 
BRANCH   9  10
ATOM     10  C   UNL     1      -1.585 -35.868 -19.624  0.00  0.00    +0.000 A 
ATOM     11  N   UNL     1      -0.921 -36.349 -20.737  0.00  0.00    +0.000 NA
ATOM     12  C   UNL     1       0.323 -35.987 -20.532  0.00  0.00    +0.000 A 
ATOM     13  N   UNL     1       0.412 -35.328 -19.350  0.00  0.00    +0.000 N 
ATOM     14  N   UNL     1      -0.781 -35.244 -18.749  0.00  0.00    +0.000 NA
ATOM     15  H   UNL     1       1.221 -34.907 -18.906  0.00  0.00    +0.000 HD
ENDBRANCH   9  10
BRANCH   9  16
ATOM     16  O   UNL     1      -3.701 -35.763 -20.698  0.00  0.00    +0.000 OA
ATOM     17  H   UNL     1      -4.631 -36.050 -20.587  0.00  0.00    +0.000 HD
ENDBRANCH   9  16
ENDBRANCH   7   8
ENDBRANCH   1   7
BRANCH   4  18
ATOM     18  C   UNL     1      -6.495 -32.362 -16.295  0.00  0.00    +0.000 C 
BRANCH  18  19
ATOM     19  C   UNL     1      -7.737 -31.840 -15.606  0.00  0.00    +0.000 A 
ATOM     20  C   UNL     1      -8.980 -31.889 -16.259  0.00  0.00    +0.000 A 
ATOM     21  C   UNL     1     -10.127 -31.392 -15.636  0.00  0.00    +0.000 A 
ATOM     22  C   UNL     1     -10.034 -30.847 -14.362  0.00  0.00    +0.000 A 
ATOM     23  F   UNL     1     -11.135 -30.367 -13.767  0.00  0.00    +0.000 F 
ATOM     24  C   UNL     1      -8.816 -30.789 -13.696  0.00  0.00    +0.000 A 
ATOM     25  C   UNL     1      -7.667 -31.283 -14.318  0.00  0.00    +0.000 A 
ENDBRANCH  18  19
ENDBRANCH   4  18
TORSDOF 6
ENDMDL
MODEL 4
REMARK VINA RESULT:    -7.275      1.808      2.273
REMARK INTER + INTRA:         -10.366
REMARK INTER:                  -9.576
REMARK INTRA:                  -0.790
REMARK UNBOUND:                -0.752
REMARK  Name = 
REMARK  6 active torsions:
REMARK  status: ('A' for Active; 'I' for Inactive)
REMARK    1  A    between atoms: C_2  and  C_3
REMARK    2  A    between atoms: C_2  and  C_11
REMARK    3  A    between atoms: C_4  and  O_5
REMARK    4  A    between atoms: C_4  and  C_6
REMARK    5  A    between atoms: C_14  and  C_15
REMARK    6  A    between atoms: C_15  and  C_16
REMARK                            x       y       z     vdW  Elec       q    Type
REMARK                         _______ _______ _______ _____ _____    ______ ____
ROOT
ATOM      1  C   UNL     1     -12.303 -30.187 -18.806  0.00  0.00    +0.000 A 
ATOM      2  C   UNL     1     -11.711 -31.278 -19.416  0.00  0.00    +0.000 A 
ATOM      3  C   UNL     1     -11.254 -32.133 -18.385  0.00  0.00    +0.000 A 
ATOM      4  C   UNL     1     -11.603 -31.529 -17.195  0.00  0.00    +0.000 A 
ATOM      5  O   UNL     1     -12.251 -30.352 -17.445  0.00  0.00    +0.000 OA
ENDROOT
BRANCH   1   7
ATOM      6  O   UNL     1     -12.436 -28.382 -20.331  0.00  0.00    +0.000 OA
ATOM      7  C   UNL     1     -12.919 -29.003 -19.380  0.00  0.00    +0.000 C 
BRANCH   7   8
ATOM      8  C   UNL     1     -14.191 -28.510 -18.779  0.00  0.00    +0.000 C 
ATOM      9  C   UNL     1     -14.238 -27.752 -17.664  0.00  0.00    +0.000 C 
BRANCH   9  10
ATOM     10  C   UNL     1     -15.473 -27.283 -17.085  0.00  0.00    +0.000 A 
ATOM     11  N   UNL     1     -16.175 -26.266 -17.706  0.00  0.00    +0.000 NA
ATOM     12  C   UNL     1     -17.248 -26.136 -16.961  0.00  0.00    +0.000 A 
ATOM     13  N   UNL     1     -17.196 -27.023 -15.936  0.00  0.00    +0.000 N 
ATOM     14  N   UNL     1     -16.078 -27.757 -15.985  0.00  0.00    +0.000 NA
ATOM     15  H   UNL     1     -17.867 -27.191 -15.194  0.00  0.00    +0.000 HD
ENDBRANCH   9  10
BRANCH   9  16
ATOM     16  O   UNL     1     -13.103 -27.365 -16.964  0.00  0.00    +0.000 OA
ATOM     17  H   UNL     1     -12.897 -28.056 -16.301  0.00  0.00    +0.000 HD
ENDBRANCH   9  16
ENDBRANCH   7   8
ENDBRANCH   1   7
BRANCH   4  18
ATOM     18  C   UNL     1     -11.435 -31.924 -15.767  0.00  0.00    +0.000 C 
BRANCH  18  19
ATOM     19  C   UNL     1     -10.047 -31.646 -15.232  0.00  0.00    +0.000 A 
ATOM     20  C   UNL     1      -9.865 -30.730 -14.183  0.00  0.00    +0.000 A 
ATOM     21  C   UNL     1      -8.585 -30.455 -13.696  0.00  0.00    +0.000 A 
ATOM     22  C   UNL     1      -7.487 -31.095 -14.257  0.00  0.00    +0.000 A 
ATOM     23  F   UNL     1      -6.259 -30.828 -13.791  0.00  0.00    +0.000 F 
ATOM     24  C   UNL     1      -7.643 -32.006 -15.294  0.00  0.00    +0.000 A 
ATOM     25  C   UNL     1      -8.921 -32.281 -15.784  0.00  0.00    +0.000 A 
ENDBRANCH  18  19
ENDBRANCH   4  18
TORSDOF 6
ENDMDL
MODEL 5
REMARK VINA RESULT:    -7.180      2.303      3.222
REMARK INTER + INTRA:         -10.240
REMARK INTER:                  -9.384
REMARK INTRA:                  -0.856
REMARK UNBOUND:                -0.752
REMARK  Name = 
REMARK  6 active torsions:
REMARK  status: ('A' for Active; 'I' for Inactive)
REMARK    1  A    between atoms: C_2  and  C_3
REMARK    2  A    between atoms: C_2  and  C_11
REMARK    3  A    between atoms: C_4  and  O_5
REMARK    4  A    between atoms: C_4  and  C_6
REMARK    5  A    between atoms: C_14  and  C_15
REMARK    6  A    between atoms: C_15  and  C_16
REMARK                            x       y       z     vdW  Elec       q    Type
REMARK                         _______ _______ _______ _____ _____    ______ ____
ROOT
ATOM      1  C   UNL     1     -12.320 -33.456 -17.736  0.00  0.00    +0.000 A 
ATOM      2  C   UNL     1     -12.456 -34.664 -17.076  0.00  0.00    +0.000 A 
ATOM      3  C   UNL     1     -11.179 -35.008 -16.574  0.00  0.00    +0.000 A 
ATOM      4  C   UNL     1     -10.328 -33.985 -16.938  0.00  0.00    +0.000 A 
ATOM      5  O   UNL     1     -11.019 -33.034 -17.636  0.00  0.00    +0.000 OA
ENDROOT
BRANCH   1   7
ATOM      6  O   UNL     1     -13.662 -32.900 -19.604  0.00  0.00    +0.000 OA
ATOM      7  C   UNL     1     -13.300 -32.656 -18.450  0.00  0.00    +0.000 C 
BRANCH   7   8
ATOM      8  C   UNL     1     -13.883 -31.473 -17.755  0.00  0.00    +0.000 C 
ATOM      9  C   UNL     1     -13.233 -30.299 -17.619  0.00  0.00    +0.000 C 
BRANCH   9  10
ATOM     10  C   UNL     1     -13.803 -29.161 -16.940  0.00  0.00    +0.000 A 
ATOM     11  N   UNL     1     -14.663 -29.360 -15.875  0.00  0.00    +0.000 NA
ATOM     12  C   UNL     1     -14.937 -28.142 -15.471  0.00  0.00    +0.000 A 
ATOM     13  N   UNL     1     -14.285 -27.248 -16.256  0.00  0.00    +0.000 N 
ATOM     14  N   UNL     1     -13.565 -27.866 -17.200  0.00  0.00    +0.000 NA
ATOM     15  H   UNL     1     -14.270 -26.236 -16.204  0.00  0.00    +0.000 HD
ENDBRANCH   9  10
BRANCH   9  16
ATOM     16  O   UNL     1     -11.952 -30.083 -18.107  0.00  0.00    +0.000 OA
ATOM     17  H   UNL     1     -11.997 -30.029 -19.084  0.00  0.00    +0.000 HD
ENDBRANCH   9  16
ENDBRANCH   7   8
ENDBRANCH   1   7
BRANCH   4  18
ATOM     18  C   UNL     1      -8.879 -33.733 -16.697  0.00  0.00    +0.000 C 
BRANCH  18  19
ATOM     19  C   UNL     1      -8.624 -32.589 -15.740  0.00  0.00    +0.000 A 
ATOM     20  C   UNL     1      -7.313 -32.281 -15.342  0.00  0.00    +0.000 A 
ATOM     21  C   UNL     1      -7.071 -31.238 -14.445  0.00  0.00    +0.000 A 
ATOM     22  C   UNL     1      -8.139 -30.503 -13.945  0.00  0.00    +0.000 A 
ATOM     23  F   UNL     1      -7.907 -29.505 -13.081  0.00  0.00    +0.000 F 
ATOM     24  C   UNL     1      -9.444 -30.789 -14.326  0.00  0.00    +0.000 A 
ATOM     25  C   UNL     1      -9.688 -31.833 -15.221  0.00  0.00    +0.000 A 
ENDBRANCH  18  19
ENDBRANCH   4  18
TORSDOF 6
ENDMDL
