MODEL 1
REMARK VINA RESULT:    -7.137      0.000      0.000
REMARK INTER + INTRA:          -7.763
REMARK INTER:                  -7.763
REMARK INTRA:                   0.000
REMARK UNBOUND:                 0.000
REMARK  Name = 
REMARK  4 active torsions:
REMARK  status: ('A' for Active; 'I' for Inactive)
REMARK    1  A    between atoms: C_1  and  C_2
REMARK    2  A    between atoms: C_6  and  O_7
REMARK    3  A    between atoms: C_15  and  O_16
REMARK    4  A    between atoms: C_18  and  O_19
REMARK                            x       y       z     vdW  Elec       q    Type
REMARK                         _______ _______ _______ _____ _____    ______ ____
ROOT
ATOM      1  C   UNL     1     -14.274 -28.893 -16.226  0.00  0.00    +0.000 C 
ATOM      2  C   UNL     1     -13.830 -30.352 -16.311  0.00  0.00    +0.000 C 
ATOM      3  C   UNL     1     -14.206 -30.975 -17.673  0.00  0.00    +0.000 C 
ATOM      4  C   UNL     1     -15.011 -32.270 -17.495  0.00  0.00    +0.000 C 
ATOM      5  C   UNL     1     -15.011 -33.175 -18.741  0.00  0.00    +0.000 C 
ATOM      6  C   UNL     1     -14.236 -34.505 -18.608  0.00  0.00    +0.000 C 
ATOM      7  C   UNL     1     -12.726 -34.339 -18.843  0.00  0.00    +0.000 C 
ATOM      8  C   UNL     1     -11.890 -35.558 -18.429  0.00  0.00    +0.000 C 
ATOM      9  C   UNL     1     -10.389 -35.247 -18.328  0.00  0.00    +0.000 C 
ATOM     10  C   UNL     1     -10.017 -34.473 -17.051  0.00  0.00    +0.000 C 
ATOM     11  C   UNL     1      -9.679 -33.002 -17.318  0.00  0.00    +0.000 C 
ATOM     12  C   UNL     1      -9.435 -32.212 -16.046  0.00  0.00    +0.000 A 
ATOM     13  C   UNL     1      -8.147 -32.240 -15.477  0.00  0.00    +0.000 A 
ATOM     14  C   UNL     1      -7.879 -31.516 -14.318  0.00  0.00    +0.000 A 
ATOM     15  C   UNL     1      -8.857 -30.739 -13.712  0.00  0.00    +0.000 A 
ATOM     16  C   UNL     1     -10.143 -30.719 -14.250  0.00  0.00    +0.000 A 
ATOM     17  C   UNL     1     -10.446 -31.459 -15.403  0.00  0.00    +0.000 A 
ATOM     18  C   UNL     1     -11.855 -31.571 -15.822  0.00  0.00    +0.000 C 
ATOM     19  O   UNL     1     -12.422 -32.661 -15.871  0.00  0.00    +0.000 OA
ATOM     20  O   UNL     1     -12.394 -30.366 -16.119  0.00  0.00    +0.000 OA
ENDROOT
BRANCH   6  21
ATOM     21  O   UNL     1     -14.503 -35.107 -17.343  0.00  0.00    +0.000 OA
ATOM     22  H   UNL     1     -13.646 -35.212 -16.884  0.00  0.00    +0.000 HD
ENDBRANCH   6  21
BRANCH  14  23
ATOM     23  O   UNL     1      -6.649 -31.556 -13.726  0.00  0.00    +0.000 OA
ATOM     24  H   UNL     1      -5.974 -31.331 -14.387  0.00  0.00    +0.000 HD
ENDBRANCH  14  23
BRANCH  16  25
ATOM     25  O   UNL     1     -11.119 -30.004 -13.610  0.00  0.00    +0.000 OA
ATOM     26  H   UNL     1     -11.892 -30.574 -13.463  0.00  0.00    +0.000 HD
ENDBRANCH  16  25
TORSDOF 3
ENDMDL
MODEL 2
REMARK VINA RESULT:    -6.367      1.840      4.300
REMARK INTER + INTRA:          -6.925
REMARK INTER:                  -6.925
REMARK INTRA:                   0.000
REMARK UNBOUND:                 0.000
REMARK  Name = 
REMARK  4 active torsions:
REMARK  status: ('A' for Active; 'I' for Inactive)
REMARK    1  A    between atoms: C_1  and  C_2
REMARK    2  A    between atoms: C_6  and  O_7
REMARK    3  A    between atoms: C_15  and  O_16
REMARK    4  A    between atoms: C_18  and  O_19
REMARK                            x       y       z     vdW  Elec       q    Type
REMARK                         _______ _______ _______ _____ _____    ______ ____
ROOT
ATOM      1  C   UNL     1     -12.704 -37.564 -17.380  0.00  0.00    +0.000 C 
ATOM      2  C   UNL     1     -12.882 -36.085 -17.713  0.00  0.00    +0.000 C 
ATOM      3  C   UNL     1     -14.319 -35.608 -17.405  0.00  0.00    +0.000 C 
ATOM      4  C   UNL     1     -14.962 -34.936 -18.626  0.00  0.00    +0.000 C 
ATOM      5  C   UNL     1     -16.164 -34.038 -18.277  0.00  0.00    +0.000 C 
ATOM      6  C   UNL     1     -15.951 -32.521 -18.473  0.00  0.00    +0.000 C 
ATOM      7  C   UNL     1     -15.232 -31.863 -17.284  0.00  0.00    +0.000 C 
ATOM      8  C   UNL     1     -14.737 -30.437 -17.562  0.00  0.00    +0.000 C 
ATOM      9  C   UNL     1     -13.724 -29.942 -16.519  0.00  0.00    +0.000 C 
ATOM     10  C   UNL     1     -12.320 -30.541 -16.708  0.00  0.00    +0.000 C 
ATOM     11  C   UNL     1     -11.968 -31.593 -15.651  0.00  0.00    +0.000 C 
ATOM     12  C   UNL     1     -10.635 -32.270 -15.912  0.00  0.00    +0.000 A 
ATOM     13  C   UNL     1      -9.463 -31.643 -15.448  0.00  0.00    +0.000 A 
ATOM     14  C   UNL     1      -8.222 -32.240 -15.655  0.00  0.00    +0.000 A 
ATOM     15  C   UNL     1      -8.110 -33.466 -16.298  0.00  0.00    +0.000 A 
ATOM     16  C   UNL     1      -9.260 -34.089 -16.783  0.00  0.00    +0.000 A 
ATOM     17  C   UNL     1     -10.520 -33.497 -16.610  0.00  0.00    +0.000 A 
ATOM     18  C   UNL     1     -11.679 -34.082 -17.307  0.00  0.00    +0.000 C 
ATOM     19  O   UNL     1     -12.313 -33.439 -18.142  0.00  0.00    +0.000 OA
ATOM     20  O   UNL     1     -11.917 -35.355 -16.916  0.00  0.00    +0.000 OA
ENDROOT
BRANCH   6  21
ATOM     21  O   UNL     1     -15.263 -32.274 -19.697  0.00  0.00    +0.000 OA
ATOM     22  H   UNL     1     -14.434 -31.805 -19.477  0.00  0.00    +0.000 HD
ENDBRANCH   6  21
BRANCH  14  23
ATOM     23  O   UNL     1      -7.067 -31.635 -15.249  0.00  0.00    +0.000 OA
ATOM     24  H   UNL     1      -6.798 -32.011 -14.395  0.00  0.00    +0.000 HD
ENDBRANCH  14  23
BRANCH  16  25
ATOM     25  O   UNL     1      -9.136 -35.264 -17.474  0.00  0.00    +0.000 OA
ATOM     26  H   UNL     1      -9.844 -35.325 -18.136  0.00  0.00    +0.000 HD
ENDBRANCH  16  25
TORSDOF 3
ENDMDL
MODEL 3
REMARK VINA RESULT:    -6.306      2.108      4.450
REMARK INTER + INTRA:          -6.859
REMARK INTER:                  -6.859
REMARK INTRA:                   0.000
REMARK UNBOUND:                 0.000
REMARK  Name = 
REMARK  4 active torsions:
REMARK  status: ('A' for Active; 'I' for Inactive)
REMARK    1  A    between atoms: C_1  and  C_2
REMARK    2  A    between atoms: C_6  and  O_7
REMARK    3  A    between atoms: C_15  and  O_16
REMARK    4  A    between atoms: C_18  and  O_19
REMARK                            x       y       z     vdW  Elec       q    Type
REMARK                         _______ _______ _______ _____ _____    ______ ____
ROOT
ATOM      1  C   UNL     1     -10.616 -35.650 -19.163  0.00  0.00    +0.000 C 
ATOM      2  C   UNL     1     -11.166 -34.226 -19.204  0.00  0.00    +0.000 C 
ATOM      3  C   UNL     1     -12.641 -34.207 -19.661  0.00  0.00    +0.000 C 
ATOM      4  C   UNL     1     -12.849 -33.257 -20.849  0.00  0.00    +0.000 C 
ATOM      5  C   UNL     1     -14.315 -32.828 -21.050  0.00  0.00    +0.000 C 
ATOM      6  C   UNL     1     -14.629 -31.345 -20.752  0.00  0.00    +0.000 C 
ATOM      7  C   UNL     1     -14.852 -31.073 -19.256  0.00  0.00    +0.000 C 
ATOM      8  C   UNL     1     -14.868 -29.584 -18.884  0.00  0.00    +0.000 C 
ATOM      9  C   UNL     1     -14.726 -29.343 -17.374  0.00  0.00    +0.000 C 
ATOM     10  C   UNL     1     -13.285 -29.524 -16.866  0.00  0.00    +0.000 C 
ATOM     11  C   UNL     1     -13.091 -30.812 -16.057  0.00  0.00    +0.000 C 
ATOM     12  C   UNL     1     -11.645 -31.050 -15.665  0.00  0.00    +0.000 A 
ATOM     13  C   UNL     1     -11.157 -30.432 -14.497  0.00  0.00    +0.000 A 
ATOM     14  C   UNL     1      -9.840 -30.637 -14.096  0.00  0.00    +0.000 A 
ATOM     15  C   UNL     1      -8.988 -31.466 -14.814  0.00  0.00    +0.000 A 
ATOM     16  C   UNL     1      -9.450 -32.067 -15.984  0.00  0.00    +0.000 A 
ATOM     17  C   UNL     1     -10.765 -31.856 -16.425  0.00  0.00    +0.000 A 
ATOM     18  C   UNL     1     -11.150 -32.343 -17.763  0.00  0.00    +0.000 C 
ATOM     19  O   UNL     1     -11.517 -31.567 -18.643  0.00  0.00    +0.000 OA
ATOM     20  O   UNL     1     -11.038 -33.687 -17.865  0.00  0.00    +0.000 OA
ENDROOT
BRANCH   6  21
ATOM     21  O   UNL     1     -13.607 -30.507 -21.286  0.00  0.00    +0.000 OA
ATOM     22  H   UNL     1     -13.997 -29.621 -21.422  0.00  0.00    +0.000 HD
ENDBRANCH   6  21
BRANCH  14  23
ATOM     23  O   UNL     1      -9.332 -30.020 -12.988  0.00  0.00    +0.000 OA
ATOM     24  H   UNL     1      -8.378 -29.888 -13.112  0.00  0.00    +0.000 HD
ENDBRANCH  14  23
BRANCH  16  25
ATOM     25  O   UNL     1      -8.586 -32.829 -16.724  0.00  0.00    +0.000 OA
ATOM     26  H   UNL     1      -8.432 -32.401 -17.582  0.00  0.00    +0.000 HD
ENDBRANCH  16  25
TORSDOF 3
ENDMDL
MODEL 4
REMARK VINA RESULT:    -6.236      1.232      1.437
REMARK INTER + INTRA:          -6.783
REMARK INTER:                  -6.783
REMARK INTRA:                   0.000
REMARK UNBOUND:                 0.000
REMARK  Name = 
REMARK  4 active torsions:
REMARK  status: ('A' for Active; 'I' for Inactive)
REMARK    1  A    between atoms: C_1  and  C_2
REMARK    2  A    between atoms: C_6  and  O_7
REMARK    3  A    between atoms: C_15  and  O_16
REMARK    4  A    between atoms: C_18  and  O_19
REMARK                            x       y       z     vdW  Elec       q    Type
REMARK                         _______ _______ _______ _____ _____    ______ ____
ROOT
ATOM      1  C   UNL     1     -15.182 -29.336 -18.080  0.00  0.00    +0.000 C 
ATOM      2  C   UNL     1     -14.593 -30.737 -17.941  0.00  0.00    +0.000 C 
ATOM      3  C   UNL     1     -14.546 -31.465 -19.302  0.00  0.00    +0.000 C 
ATOM      4  C   UNL     1     -15.242 -32.832 -19.233  0.00  0.00    +0.000 C 
ATOM      5  C   UNL     1     -14.837 -33.791 -20.368  0.00  0.00    +0.000 C 
ATOM      6  C   UNL     1     -13.997 -35.018 -19.945  0.00  0.00    +0.000 C 
ATOM      7  C   UNL     1     -12.501 -34.695 -19.809  0.00  0.00    +0.000 C 
ATOM      8  C   UNL     1     -11.685 -35.790 -19.110  0.00  0.00    +0.000 C 
ATOM      9  C   UNL     1     -10.297 -35.309 -18.662  0.00  0.00    +0.000 C 
ATOM     10  C   UNL     1     -10.339 -34.436 -17.396  0.00  0.00    +0.000 C 
ATOM     11  C   UNL     1     -10.087 -32.951 -17.681  0.00  0.00    +0.000 C 
ATOM     12  C   UNL     1     -10.253 -32.078 -16.451  0.00  0.00    +0.000 A 
ATOM     13  C   UNL     1      -9.157 -31.933 -15.579  0.00  0.00    +0.000 A 
ATOM     14  C   UNL     1      -9.265 -31.128 -14.448  0.00  0.00    +0.000 A 
ATOM     15  C   UNL     1     -10.435 -30.437 -14.165  0.00  0.00    +0.000 A 
ATOM     16  C   UNL     1     -11.537 -30.587 -15.006  0.00  0.00    +0.000 A 
ATOM     17  C   UNL     1     -11.463 -31.412 -16.138  0.00  0.00    +0.000 A 
ATOM     18  C   UNL     1     -12.701 -31.702 -16.886  0.00  0.00    +0.000 C 
ATOM     19  O   UNL     1     -13.128 -32.850 -16.991  0.00  0.00    +0.000 OA
ATOM     20  O   UNL     1     -13.258 -30.581 -17.398  0.00  0.00    +0.000 OA
ENDROOT
BRANCH   6  21
ATOM     21  O   UNL     1     -14.519 -35.583 -18.745  0.00  0.00    +0.000 OA
ATOM     22  H   UNL     1     -14.068 -35.145 -17.996  0.00  0.00    +0.000 HD
ENDBRANCH   6  21
BRANCH  14  23
ATOM     23  O   UNL     1      -8.229 -31.000 -13.567  0.00  0.00    +0.000 OA
ATOM     24  H   UNL     1      -7.965 -31.884 -13.261  0.00  0.00    +0.000 HD
ENDBRANCH  14  23
BRANCH  16  25
ATOM     25  O   UNL     1     -12.708 -29.956 -14.685  0.00  0.00    +0.000 OA
ATOM     26  H   UNL     1     -12.833 -29.978 -13.722  0.00  0.00    +0.000 HD
ENDBRANCH  16  25
TORSDOF 3
ENDMDL
MODEL 5
REMARK VINA RESULT:    -5.870      2.822      3.624
REMARK INTER + INTRA:          -6.385
REMARK INTER:                  -6.385
REMARK INTRA:                   0.000
REMARK UNBOUND:                 0.000
REMARK  Name = 
REMARK  4 active torsions:
REMARK  status: ('A' for Active; 'I' for Inactive)
REMARK    1  A    between atoms: C_1  and  C_2
REMARK    2  A    between atoms: C_6  and  O_7
REMARK    3  A    between atoms: C_15  and  O_16
REMARK    4  A    between atoms: C_18  and  O_19
REMARK                            x       y       z     vdW  Elec       q    Type
REMARK                         _______ _______ _______ _____ _____    ______ ____
ROOT
ATOM      1  C   UNL     1     -14.902 -26.876 -16.487  0.00  0.00    +0.000 C 
ATOM      2  C   UNL     1     -14.810 -28.152 -17.321  0.00  0.00    +0.000 C 
ATOM      3  C   UNL     1     -15.035 -27.861 -18.821  0.00  0.00    +0.000 C 
ATOM      4  C   UNL     1     -16.145 -28.747 -19.405  0.00  0.00    +0.000 C 
ATOM      5  C   UNL     1     -16.104 -28.858 -20.941  0.00  0.00    +0.000 C 
ATOM      6  C   UNL     1     -15.712 -30.242 -21.506  0.00  0.00    +0.000 C 
ATOM      7  C   UNL     1     -14.192 -30.459 -21.543  0.00  0.00    +0.000 C 
ATOM      8  C   UNL     1     -13.772 -31.911 -21.809  0.00  0.00    +0.000 C 
ATOM      9  C   UNL     1     -12.295 -32.177 -21.486  0.00  0.00    +0.000 C 
ATOM     10  C   UNL     1     -12.019 -32.302 -19.977  0.00  0.00    +0.000 C 
ATOM     11  C   UNL     1     -11.293 -31.084 -19.396  0.00  0.00    +0.000 C 
ATOM     12  C   UNL     1     -11.135 -31.155 -17.888  0.00  0.00    +0.000 A 
ATOM     13  C   UNL     1     -10.036 -31.861 -17.363  0.00  0.00    +0.000 A 
ATOM     14  C   UNL     1      -9.847 -31.937 -15.986  0.00  0.00    +0.000 A 
ATOM     15  C   UNL     1     -10.715 -31.307 -15.104  0.00  0.00    +0.000 A 
ATOM     16  C   UNL     1     -11.820 -30.622 -15.608  0.00  0.00    +0.000 A 
ATOM     17  C   UNL     1     -12.048 -30.552 -16.990  0.00  0.00    +0.000 A 
ATOM     18  C   UNL     1     -13.326 -29.996 -17.470  0.00  0.00    +0.000 C 
ATOM     19  O   UNL     1     -14.113 -30.678 -18.124  0.00  0.00    +0.000 OA
ATOM     20  O   UNL     1     -13.489 -28.705 -17.099  0.00  0.00    +0.000 OA
ENDROOT
BRANCH   6  21
ATOM     21  O   UNL     1     -16.368 -31.276 -20.776  0.00  0.00    +0.000 OA
ATOM     22  H   UNL     1     -16.384 -32.070 -21.346  0.00  0.00    +0.000 HD
ENDBRANCH   6  21
BRANCH  14  23
ATOM     23  O   UNL     1      -8.811 -32.647 -15.450  0.00  0.00    +0.000 OA
ATOM     24  H   UNL     1      -7.991 -32.137 -15.557  0.00  0.00    +0.000 HD
ENDBRANCH  14  23
BRANCH  16  25
ATOM     25  O   UNL     1     -12.709 -30.060 -14.731  0.00  0.00    +0.000 OA
ATOM     26  H   UNL     1     -13.493 -30.627 -14.658  0.00  0.00    +0.000 HD
ENDBRANCH  16  25
TORSDOF 3
ENDMDL
