MODEL 1
REMARK VINA RESULT:    -7.227      0.000      0.000
REMARK INTER + INTRA:         -10.433
REMARK INTER:                  -9.550
REMARK INTRA:                  -0.883
REMARK UNBOUND:                -0.883
REMARK  Name = 
REMARK  10 active torsions:
REMARK  status: ('A' for Active; 'I' for Inactive)
REMARK    1  A    between atoms: C_1  and  O_2
REMARK    2  A    between atoms: O_2  and  C_3
REMARK    3  A    between atoms: C_6  and  C_7
REMARK    4  A    between atoms: C_10  and  C_11
REMARK    5  A    between atoms: C_11  and  C_12
REMARK    6  A    between atoms: C_13  and  C_14
REMARK    7  A    between atoms: C_13  and  C_15
REMARK    8  A    between atoms: C_16  and  O_17
REMARK    9  A    between atoms: C_19  and  O_20
REMARK   10  A    between atoms: C_24  and  O_25
REMARK                            x       y       z     vdW  Elec       q    Type
REMARK                         _______ _______ _______ _____ _____    ______ ____
ROOT
ATOM      1  C   UNL     1     -11.290 -32.676 -17.755  0.00  0.00    +0.000 A 
ATOM      2  O   UNL     1      -9.890 -32.354 -17.530  0.00  0.00    +0.000 OA
ATOM      3  C   UNL     1      -9.588 -31.903 -16.214  0.00  0.00    +0.000 A 
ATOM      4  C   UNL     1      -8.306 -31.917 -15.604  0.00  0.00    +0.000 A 
ATOM      5  C   UNL     1      -8.222 -31.320 -14.313  0.00  0.00    +0.000 A 
ATOM      6  C   UNL     1      -9.297 -30.733 -13.651  0.00  0.00    +0.000 A 
ATOM      7  C   UNL     1     -10.528 -30.743 -14.239  0.00  0.00    +0.000 A 
ATOM      8  C   UNL     1     -10.680 -31.400 -15.455  0.00  0.00    +0.000 A 
ATOM      9  C   UNL     1     -12.026 -31.800 -15.887  0.00  0.00    +0.000 A 
ATOM     10  O   UNL     1     -13.024 -31.138 -15.677  0.00  0.00    +0.000 OA
ATOM     11  C   UNL     1     -11.975 -33.092 -16.673  0.00  0.00    +0.000 A 
ENDROOT
BRANCH   1  15
ATOM     12  C   UNL     1     -13.944 -30.604 -20.611  0.00  0.00    +0.000 A 
ATOM     13  C   UNL     1     -12.711 -30.046 -20.241  0.00  0.00    +0.000 A 
ATOM     14  C   UNL     1     -11.821 -30.692 -19.337  0.00  0.00    +0.000 A 
ATOM     15  C   UNL     1     -12.138 -31.927 -18.781  0.00  0.00    +0.000 A 
ATOM     16  C   UNL     1     -13.373 -32.495 -19.227  0.00  0.00    +0.000 A 
ATOM     17  C   UNL     1     -14.271 -31.846 -20.098  0.00  0.00    +0.000 A 
BRANCH  12  19
ATOM     18  C   UNL     1     -14.529 -28.437 -21.453  0.00  0.00    +0.000 C 
ATOM     19  O   UNL     1     -14.729 -29.851 -21.442  0.00  0.00    +0.000 OA
ENDBRANCH  12  19
ENDBRANCH   1  15
BRANCH   5  20
ATOM     20  O   UNL     1      -7.050 -31.276 -13.607  0.00  0.00    +0.000 OA
ATOM     21  H   UNL     1      -6.518 -30.587 -14.033  0.00  0.00    +0.000 HD
ENDBRANCH   5  20
BRANCH   7  22
ATOM     22  O   UNL     1     -11.558 -30.125 -13.599  0.00  0.00    +0.000 OA
ATOM     23  H   UNL     1     -12.286 -30.777 -13.500  0.00  0.00    +0.000 HD
ENDBRANCH   7  22
BRANCH  11  24
ATOM     24  O   UNL     1     -11.533 -34.181 -15.921  0.00  0.00    +0.000 OA
ATOM     25  H   UNL     1     -11.010 -33.825 -15.181  0.00  0.00    +0.000 HD
ENDBRANCH  11  24
BRANCH   4  26
ATOM     26  C   UNL     1      -7.049 -32.611 -16.109  0.00  0.00    +0.000 C 
BRANCH  26  27
ATOM     27  C   UNL     1      -7.062 -34.113 -16.011  0.00  0.00    +0.000 C 
ATOM     28  C   UNL     1      -6.324 -35.048 -16.655  0.00  0.00    +0.000 C 
ATOM     29  C   UNL     1      -6.486 -36.507 -16.297  0.00  0.00    +0.000 C 
ATOM     30  C   UNL     1      -5.281 -34.813 -17.723  0.00  0.00    +0.000 C 
ENDBRANCH  26  27
ENDBRANCH   4  26
TORSDOF 7
ENDMDL
MODEL 2
REMARK VINA RESULT:    -7.161      2.866      4.533
REMARK INTER + INTRA:         -10.346
REMARK INTER:                  -9.491
REMARK INTRA:                  -0.856
REMARK UNBOUND:                -0.883
REMARK  Name = 
REMARK  10 active torsions:
REMARK  status: ('A' for Active; 'I' for Inactive)
REMARK    1  A    between atoms: C_1  and  O_2
REMARK    2  A    between atoms: O_2  and  C_3
REMARK    3  A    between atoms: C_6  and  C_7
REMARK    4  A    between atoms: C_10  and  C_11
REMARK    5  A    between atoms: C_11  and  C_12
REMARK    6  A    between atoms: C_13  and  C_14
REMARK    7  A    between atoms: C_13  and  C_15
REMARK    8  A    between atoms: C_16  and  O_17
REMARK    9  A    between atoms: C_19  and  O_20
REMARK   10  A    between atoms: C_24  and  O_25
REMARK                            x       y       z     vdW  Elec       q    Type
REMARK                         _______ _______ _______ _____ _____    ______ ____
ROOT
ATOM      1  C   UNL     1     -12.474 -30.318 -18.220  0.00  0.00    +0.000 A 
ATOM      2  O   UNL     1     -11.496 -30.978 -17.370  0.00  0.00    +0.000 OA
ATOM      3  C   UNL     1     -11.645 -32.390 -17.280  0.00  0.00    +0.000 A 
ATOM      4  C   UNL     1     -10.635 -33.309 -16.886  0.00  0.00    +0.000 A 
ATOM      5  C   UNL     1     -11.041 -34.671 -16.770  0.00  0.00    +0.000 A 
ATOM      6  C   UNL     1     -12.337 -35.123 -17.003  0.00  0.00    +0.000 A 
ATOM      7  C   UNL     1     -13.293 -34.234 -17.401  0.00  0.00    +0.000 A 
ATOM      8  C   UNL     1     -12.922 -32.912 -17.623  0.00  0.00    +0.000 A 
ATOM      9  C   UNL     1     -13.788 -32.056 -18.444  0.00  0.00    +0.000 A 
ATOM     10  O   UNL     1     -15.002 -32.122 -18.435  0.00  0.00    +0.000 OA
ATOM     11  C   UNL     1     -12.965 -31.060 -19.230  0.00  0.00    +0.000 A 
ENDROOT
BRANCH   1  15
ATOM     12  C   UNL     1     -15.174 -27.321 -16.423  0.00  0.00    +0.000 A 
ATOM     13  C   UNL     1     -14.941 -27.341 -17.806  0.00  0.00    +0.000 A 
ATOM     14  C   UNL     1     -14.091 -28.301 -18.425  0.00  0.00    +0.000 A 
ATOM     15  C   UNL     1     -13.454 -29.282 -17.672  0.00  0.00    +0.000 A 
ATOM     16  C   UNL     1     -13.762 -29.271 -16.275  0.00  0.00    +0.000 A 
ATOM     17  C   UNL     1     -14.579 -28.304 -15.655  0.00  0.00    +0.000 A 
BRANCH  12  19
ATOM     18  C   UNL     1     -16.493 -25.376 -16.897  0.00  0.00    +0.000 C 
ATOM     19  O   UNL     1     -15.965 -26.309 -15.953  0.00  0.00    +0.000 OA
ENDBRANCH  12  19
ENDBRANCH   1  15
BRANCH   5  20
ATOM     20  O   UNL     1     -10.168 -35.662 -16.411  0.00  0.00    +0.000 OA
ATOM     21  H   UNL     1     -10.714 -36.453 -16.286  0.00  0.00    +0.000 HD
ENDBRANCH   5  20
BRANCH   7  22
ATOM     22  O   UNL     1     -14.564 -34.685 -17.581  0.00  0.00    +0.000 OA
ATOM     23  H   UNL     1     -14.817 -34.509 -18.514  0.00  0.00    +0.000 HD
ENDBRANCH   7  22
BRANCH  11  24
ATOM     24  O   UNL     1     -12.113 -31.655 -20.161  0.00  0.00    +0.000 OA
ATOM     25  H   UNL     1     -12.534 -31.562 -21.034  0.00  0.00    +0.000 HD
ENDBRANCH  11  24
BRANCH   4  26
ATOM     26  C   UNL     1      -9.151 -33.031 -16.705  0.00  0.00    +0.000 C 
BRANCH  26  27
ATOM     27  C   UNL     1      -8.785 -32.301 -15.440  0.00  0.00    +0.000 C 
ATOM     28  C   UNL     1      -7.646 -31.658 -15.088  0.00  0.00    +0.000 C 
ATOM     29  C   UNL     1      -7.579 -30.925 -13.768  0.00  0.00    +0.000 C 
ATOM     30  C   UNL     1      -6.374 -31.544 -15.894  0.00  0.00    +0.000 C 
ENDBRANCH  26  27
ENDBRANCH   4  26
TORSDOF 7
ENDMDL
MODEL 3
REMARK VINA RESULT:    -6.883      1.263      1.658
REMARK INTER + INTRA:          -9.979
REMARK INTER:                  -9.290
REMARK INTRA:                  -0.689
REMARK UNBOUND:                -0.883
REMARK  Name = 
REMARK  10 active torsions:
REMARK  status: ('A' for Active; 'I' for Inactive)
REMARK    1  A    between atoms: C_1  and  O_2
REMARK    2  A    between atoms: O_2  and  C_3
REMARK    3  A    between atoms: C_6  and  C_7
REMARK    4  A    between atoms: C_10  and  C_11
REMARK    5  A    between atoms: C_11  and  C_12
REMARK    6  A    between atoms: C_13  and  C_14
REMARK    7  A    between atoms: C_13  and  C_15
REMARK    8  A    between atoms: C_16  and  O_17
REMARK    9  A    between atoms: C_19  and  O_20
REMARK   10  A    between atoms: C_24  and  O_25
REMARK                            x       y       z     vdW  Elec       q    Type
REMARK                         _______ _______ _______ _____ _____    ______ ____
ROOT
ATOM      1  C   UNL     1     -11.068 -33.500 -17.927  0.00  0.00    +0.000 A 
ATOM      2  O   UNL     1      -9.754 -32.964 -17.611  0.00  0.00    +0.000 OA
ATOM      3  C   UNL     1      -9.683 -32.253 -16.380  0.00  0.00    +0.000 A 
ATOM      4  C   UNL     1      -8.501 -31.993 -15.637  0.00  0.00    +0.000 A 
ATOM      5  C   UNL     1      -8.658 -31.172 -14.482  0.00  0.00    +0.000 A 
ATOM      6  C   UNL     1      -9.869 -30.622 -14.071  0.00  0.00    +0.000 A 
ATOM      7  C   UNL     1     -11.001 -30.896 -14.782  0.00  0.00    +0.000 A 
ATOM      8  C   UNL     1     -10.916 -31.771 -15.859  0.00  0.00    +0.000 A 
ATOM      9  C   UNL     1     -12.140 -32.413 -16.357  0.00  0.00    +0.000 A 
ATOM     10  O   UNL     1     -13.222 -31.859 -16.392  0.00  0.00    +0.000 OA
ATOM     11  C   UNL     1     -11.845 -33.804 -16.871  0.00  0.00    +0.000 A 
ENDROOT
BRANCH   1  15
ATOM     12  C   UNL     1     -13.129 -32.064 -21.559  0.00  0.00    +0.000 A 
ATOM     13  C   UNL     1     -13.263 -33.395 -21.135  0.00  0.00    +0.000 A 
ATOM     14  C   UNL     1     -12.629 -33.891 -19.961  0.00  0.00    +0.000 A 
ATOM     15  C   UNL     1     -11.844 -33.060 -19.167  0.00  0.00    +0.000 A 
ATOM     16  C   UNL     1     -11.779 -31.696 -19.594  0.00  0.00    +0.000 A 
ATOM     17  C   UNL     1     -12.381 -31.208 -20.772  0.00  0.00    +0.000 A 
BRANCH  12  19
ATOM     18  C   UNL     1     -13.678 -32.672 -23.812  0.00  0.00    +0.000 C 
ATOM     19  O   UNL     1     -13.744 -31.735 -22.736  0.00  0.00    +0.000 OA
ENDBRANCH  12  19
ENDBRANCH   1  15
BRANCH   5  20
ATOM     20  O   UNL     1      -7.604 -30.851 -13.669  0.00  0.00    +0.000 OA
ATOM     21  H   UNL     1      -6.815 -31.173 -14.131  0.00  0.00    +0.000 HD
ENDBRANCH   5  20
BRANCH   7  22
ATOM     22  O   UNL     1     -12.169 -30.315 -14.393  0.00  0.00    +0.000 OA
ATOM     23  H   UNL     1     -12.872 -31.001 -14.422  0.00  0.00    +0.000 HD
ENDBRANCH   7  22
BRANCH  11  24
ATOM     24  O   UNL     1     -11.395 -34.678 -15.880  0.00  0.00    +0.000 OA
ATOM     25  H   UNL     1     -10.570 -34.305 -15.523  0.00  0.00    +0.000 HD
ENDBRANCH  11  24
BRANCH   4  26
ATOM     26  C   UNL     1      -7.121 -32.594 -15.854  0.00  0.00    +0.000 C 
BRANCH  26  27
ATOM     27  C   UNL     1      -7.073 -34.098 -15.875  0.00  0.00    +0.000 C 
ATOM     28  C   UNL     1      -6.329 -34.949 -16.621  0.00  0.00    +0.000 C 
ATOM     29  C   UNL     1      -6.420 -36.438 -16.373  0.00  0.00    +0.000 C 
ATOM     30  C   UNL     1      -5.343 -34.590 -17.707  0.00  0.00    +0.000 C 
ENDBRANCH  26  27
ENDBRANCH   4  26
TORSDOF 7
ENDMDL
MODEL 4
REMARK VINA RESULT:    -6.360      3.685      6.828
REMARK INTER + INTRA:          -9.288
REMARK INTER:                  -8.483
REMARK INTRA:                  -0.805
REMARK UNBOUND:                -0.883
REMARK  Name = 
REMARK  10 active torsions:
REMARK  status: ('A' for Active; 'I' for Inactive)
REMARK    1  A    between atoms: C_1  and  O_2
REMARK    2  A    between atoms: O_2  and  C_3
REMARK    3  A    between atoms: C_6  and  C_7
REMARK    4  A    between atoms: C_10  and  C_11
REMARK    5  A    between atoms: C_11  and  C_12
REMARK    6  A    between atoms: C_13  and  C_14
REMARK    7  A    between atoms: C_13  and  C_15
REMARK    8  A    between atoms: C_16  and  O_17
REMARK    9  A    between atoms: C_19  and  O_20
REMARK   10  A    between atoms: C_24  and  O_25
REMARK                            x       y       z     vdW  Elec       q    Type
REMARK                         _______ _______ _______ _____ _____    ______ ____
ROOT
ATOM      1  C   UNL     1     -12.594 -34.677 -18.314  0.00  0.00    +0.000 A 
ATOM      2  O   UNL     1     -12.926 -33.781 -17.218  0.00  0.00    +0.000 OA
ATOM      3  C   UNL     1     -11.829 -33.028 -16.714  0.00  0.00    +0.000 A 
ATOM      4  C   UNL     1     -11.920 -31.823 -15.968  0.00  0.00    +0.000 A 
ATOM      5  C   UNL     1     -10.689 -31.296 -15.478  0.00  0.00    +0.000 A 
ATOM      6  C   UNL     1      -9.448 -31.895 -15.678  0.00  0.00    +0.000 A 
ATOM      7  C   UNL     1      -9.371 -33.041 -16.413  0.00  0.00    +0.000 A 
ATOM      8  C   UNL     1     -10.532 -33.540 -16.994  0.00  0.00    +0.000 A 
ATOM      9  C   UNL     1     -10.421 -34.485 -18.113  0.00  0.00    +0.000 A 
ATOM     10  O   UNL     1      -9.553 -35.332 -18.194  0.00  0.00    +0.000 OA
ATOM     11  C   UNL     1     -11.562 -34.296 -19.089  0.00  0.00    +0.000 A 
ENDROOT
BRANCH   1  15
ATOM     12  C   UNL     1     -12.913 -39.079 -18.165  0.00  0.00    +0.000 A 
ATOM     13  C   UNL     1     -13.116 -38.304 -17.013  0.00  0.00    +0.000 A 
ATOM     14  C   UNL     1     -13.039 -36.882 -17.025  0.00  0.00    +0.000 A 
ATOM     15  C   UNL     1     -12.763 -36.191 -18.200  0.00  0.00    +0.000 A 
ATOM     16  C   UNL     1     -12.623 -37.008 -19.366  0.00  0.00    +0.000 A 
ATOM     17  C   UNL     1     -12.669 -38.416 -19.354  0.00  0.00    +0.000 A 
BRANCH  12  19
ATOM     18  C   UNL     1     -13.862 -40.966 -17.031  0.00  0.00    +0.000 C 
ATOM     19  O   UNL     1     -12.958 -40.437 -18.002  0.00  0.00    +0.000 OA
ENDBRANCH  12  19
ENDBRANCH   1  15
BRANCH   5  20
ATOM     20  O   UNL     1     -10.631 -30.135 -14.755  0.00  0.00    +0.000 OA
ATOM     21  H   UNL     1     -11.512 -30.031 -14.365  0.00  0.00    +0.000 HD
ENDBRANCH   5  20
BRANCH   7  22
ATOM     22  O   UNL     1      -8.157 -33.637 -16.561  0.00  0.00    +0.000 OA
ATOM     23  H   UNL     1      -8.252 -34.583 -16.312  0.00  0.00    +0.000 HD
ENDBRANCH   7  22
BRANCH  11  24
ATOM     24  O   UNL     1     -11.558 -33.047 -19.712  0.00  0.00    +0.000 OA
ATOM     25  H   UNL     1     -12.281 -32.528 -19.316  0.00  0.00    +0.000 HD
ENDBRANCH  11  24
BRANCH   4  26
ATOM     26  C   UNL     1     -13.156 -30.963 -15.747  0.00  0.00    +0.000 C 
BRANCH  26  27
ATOM     27  C   UNL     1     -13.386 -29.894 -16.782  0.00  0.00    +0.000 C 
ATOM     28  C   UNL     1     -14.094 -28.741 -16.719  0.00  0.00    +0.000 C 
ATOM     29  C   UNL     1     -14.087 -27.794 -17.897  0.00  0.00    +0.000 C 
ATOM     30  C   UNL     1     -14.910 -28.231 -15.555  0.00  0.00    +0.000 C 
ENDBRANCH  26  27
ENDBRANCH   4  26
TORSDOF 7
ENDMDL
MODEL 5
REMARK VINA RESULT:    -6.276      2.549      7.712
REMARK INTER + INTRA:          -9.178
REMARK INTER:                  -8.212
REMARK INTRA:                  -0.965
REMARK UNBOUND:                -0.883
REMARK  Name = 
REMARK  10 active torsions:
REMARK  status: ('A' for Active; 'I' for Inactive)
REMARK    1  A    between atoms: C_1  and  O_2
REMARK    2  A    between atoms: O_2  and  C_3
REMARK    3  A    between atoms: C_6  and  C_7
REMARK    4  A    between atoms: C_10  and  C_11
REMARK    5  A    between atoms: C_11  and  C_12
REMARK    6  A    between atoms: C_13  and  C_14
REMARK    7  A    between atoms: C_13  and  C_15
REMARK    8  A    between atoms: C_16  and  O_17
REMARK    9  A    between atoms: C_19  and  O_20
REMARK   10  A    between atoms: C_24  and  O_25
REMARK                            x       y       z     vdW  Elec       q    Type
REMARK                         _______ _______ _______ _____ _____    ______ ____
ROOT
ATOM      1  C   UNL     1     -12.612 -31.676 -17.203  0.00  0.00    +0.000 A 
ATOM      2  O   UNL     1     -13.771 -30.903 -16.787  0.00  0.00    +0.000 OA
ATOM      3  C   UNL     1     -14.152 -29.870 -17.689  0.00  0.00    +0.000 A 
ATOM      4  C   UNL     1     -15.431 -29.256 -17.759  0.00  0.00    +0.000 A 
ATOM      5  C   UNL     1     -15.553 -28.170 -18.674  0.00  0.00    +0.000 A 
ATOM      6  C   UNL     1     -14.511 -27.692 -19.464  0.00  0.00    +0.000 A 
ATOM      7  C   UNL     1     -13.293 -28.302 -19.402  0.00  0.00    +0.000 A 
ATOM      8  C   UNL     1     -13.151 -29.427 -18.597  0.00  0.00    +0.000 A 
ATOM      9  C   UNL     1     -12.025 -30.339 -18.836  0.00  0.00    +0.000 A 
ATOM     10  O   UNL     1     -10.919 -29.966 -19.178  0.00  0.00    +0.000 OA
ATOM     11  C   UNL     1     -12.418 -31.768 -18.532  0.00  0.00    +0.000 A 
ENDROOT
BRANCH   1  15
ATOM     12  C   UNL     1      -8.767 -31.812 -15.035  0.00  0.00    +0.000 A 
ATOM     13  C   UNL     1      -9.832 -31.031 -14.561  0.00  0.00    +0.000 A 
ATOM     14  C   UNL     1     -11.093 -30.974 -15.222  0.00  0.00    +0.000 A 
ATOM     15  C   UNL     1     -11.326 -31.711 -16.379  0.00  0.00    +0.000 A 
ATOM     16  C   UNL     1     -10.241 -32.543 -16.799  0.00  0.00    +0.000 A 
ATOM     17  C   UNL     1      -8.983 -32.579 -16.165  0.00  0.00    +0.000 A 
BRANCH  12  19
ATOM     18  C   UNL     1      -7.218 -30.458 -13.805  0.00  0.00    +0.000 C 
ATOM     19  O   UNL     1      -7.594 -31.729 -14.337  0.00  0.00    +0.000 OA
ENDBRANCH  12  19
ENDBRANCH   1  15
BRANCH   5  20
ATOM     20  O   UNL     1     -16.732 -27.497 -18.850  0.00  0.00    +0.000 OA
ATOM     21  H   UNL     1     -17.161 -27.496 -17.980  0.00  0.00    +0.000 HD
ENDBRANCH   5  20
BRANCH   7  22
ATOM     22  O   UNL     1     -12.274 -27.794 -20.147  0.00  0.00    +0.000 OA
ATOM     23  H   UNL     1     -11.585 -27.462 -19.529  0.00  0.00    +0.000 HD
ENDBRANCH   7  22
BRANCH  11  24
ATOM     24  O   UNL     1     -13.420 -32.258 -19.369  0.00  0.00    +0.000 OA
ATOM     25  H   UNL     1     -14.245 -32.271 -18.850  0.00  0.00    +0.000 HD
ENDBRANCH  11  24
BRANCH   4  26
ATOM     26  C   UNL     1     -16.712 -29.707 -17.073  0.00  0.00    +0.000 C 
BRANCH  26  27
ATOM     27  C   UNL     1     -17.067 -31.157 -17.268  0.00  0.00    +0.000 C 
ATOM     28  C   UNL     1     -17.246 -31.879 -18.399  0.00  0.00    +0.000 C 
ATOM     29  C   UNL     1     -17.518 -33.363 -18.305  0.00  0.00    +0.000 C 
ATOM     30  C   UNL     1     -17.177 -31.380 -19.823  0.00  0.00    +0.000 C 
ENDBRANCH  26  27
ENDBRANCH   4  26
TORSDOF 7
ENDMDL
